pglib_opf_case240_pserc/pglib_opf_case240_pserc_3regions.m
% -------------------------------------------------------------------------
% Partitioned MATPOWER Case File
% Copyright (c) 2025 Milad Hasanzadeh
% Generated on: 2025-06-21
% This file contains partitioned data for 3 regions


% -------------------- mpc_regionR1 --------------------

mpc_regionR1.version = '2';
mpc_regionR1.baseMVA = 100.0000;
mpc_regionR1.bus = [
%	bus_i       type        Pd          Qd          Gs          Bs          area        Vm          Va          baseKV      zone        Vmax        Vmin        
	 1	 1	 341.3057	 52.828	 0	 0	 31	 1	 0	 230	 1	 1.1	 0.9;
	 2	 1	 159.4648	 24.929	 0	 0	 31	 1	 0	 230	 1	 1.1	 0.9;
	 3	 1	 419.6109	 59.777	 0	 0	 32	 1	 0	 230	 1	 1.1	 0.9;
	 4	 1	 309.9718	 40.133	 0	 0	 31	 1	 0	 115	 1	 1.1	 0.9;
	 5	 1	 239.3018	 49.091	 0	 0	 31	 1	 0	 115	 1	 1.1	 0.9;
	 6	 2	 0	 0	 0	 0	 32	 1	 0	 20	 1	 1.1	 0.9;
	 7	 2	 0	 0	 0	 0	 31	 1	 0	 20	 1	 1.1	 0.9;
	 8	 1	 462.4769	 97.849	 0	 0	 32	 1	 0	 230	 1	 1.1	 0.9;
	 9	 1	 586.1795	 83.473	 0	 0	 32	 1	 0	 230	 1	 1.1	 0.9;
	 10	 1	 657.1046	 158.476	 0	 0	 32	 1	 0	 230	 1	 1.1	 0.9;
	 11	 1	 668.7879	 95.313	 0	 0	 32	 1	 0	 230	 1	 1.1	 0.9;
	 12	 1	 546.0609	 77.782	 0	 0	 32	 1	 0	 230	 1	 1.1	 0.9;
	 13	 2	 0	 0	 0	 0	 32	 1	 0	 20	 1	 1.1	 0.9;
	 14	 1	 0	 0	 0	 0	 32	 1	 0	 500	 1	 1.1	 0.9;
	 15	 1	 345.3259	 85.791	 0	 0	 32	 1	 0	 230	 1	 1.1	 0.9;
	 16	 1	 625.4106	 150.715	 0	 0	 32	 1	 0	 230	 1	 1.1	 0.9;
	 17	 1	 533.4822	 122.616	 0	 0	 32	 1	 0	 230	 1	 1.1	 0.9;
	 18	 1	 430.3196	 61.225	 0	 0	 32	 1	 0	 230	 1	 1.1	 0.9;
	 19	 2	 0	 0	 0	 0	 32	 1	 0	 20	 1	 1.1	 0.9;
	 20	 1	 557.7071	 135.909	 0	 0	 34	 1	 0	 230	 1	 1.1	 0.9;
	 21	 1	 0	 0	 0	 0	 34	 1	 0	 230	 1	 1.1	 0.9;
	 22	 1	 515.9687	 73.583	 0	 0	 34	 1	 0	 230	 1	 1.1	 0.9;
	 23	 1	 438.461	 62.075	 0	 0	 34	 1	 0	 230	 1	 1.1	 0.9;
	 24	 1	 448.8976	 63.723	 0	 0	 34	 1	 0	 230	 1	 1.1	 0.9;
	 25	 2	 0	 0	 0	 0	 34	 1	 0	 20	 1	 1.1	 0.9;
	 26	 2	 0	 0	 0	 0	 34	 1	 0	 20	 1	 1.1	 0.9;
	 27	 1	 625.0164	 89.015	 0	 0	 35	 1	 0	 230	 1	 1.1	 0.9;
	 28	 2	 0	 0	 0	 0	 35	 1	 0	 20	 1	 1.1	 0.9;
	 29	 1	 104.8564	 14.844	 0	 0	 36	 1	 0	 115	 1	 1.1	 0.9;
	 30	 2	 0	 0	 0	 0	 36	 1	 0	 20	 1	 1.1	 0.9;
	 31	 1	 317.0506	 15.847	 0	 0	 37	 1	 0	 115	 1	 1.1	 0.9;
	 32	 2	 0	 0	 0	 0	 37	 1	 0	 20	 1	 1.1	 0.9;
	 33	 1	 191.2229	 47.411	 0	 0	 38	 1	 0	 500	 1	 1.1	 0.9;
	 34	 1	 0	 0	 0	 0	 38	 1	 0	 500	 1	 1.1	 0.9;
	 35	 1	 0	 0	 0	 0	 38	 1	 0	 500	 1	 1.1	 0.9;
	 36	 1	 223.6404	 55.318	 0	 0	 38	 1	 0	 230	 1	 1.1	 0.9;
	 37	 1	 499.3888	 163.106	 0	 0	 38	 1	 0	 230	 1	 1.1	 0.9;
	 38	 1	 289.5858	 41.366	 0	 0	 38	 1	 0	 230	 1	 1.1	 0.9;
	 39	 2	 0	 0	 0	 0	 38	 1	 0	 20	 1	 1.1	 0.9;
	 40	 2	 0	 0	 0	 0	 38	 1	 0	 20	 1	 1.1	 0.9;
	 41	 2	 0	 0	 0	 0	 38	 1	 0	 20	 1	 1.1	 0.9;
	 42	 1	 0	 0	 0	 0	 38	 1	 0	 500	 1	 1.1	 0.9;
	 43	 1	 0	 0	 0	 0	 38	 1	 0	 500	 1	 1.1	 0.9;
	 44	 1	 0	 0	 0	 0	 38	 1	 0	 500	 1	 1.1	 0.9;
	 45	 1	 0	 0	 0	 0	 38	 1	 0	 500	 1	 1.1	 0.9;
	 46	 1	 0	 0	 0	 0	 39	 1	 0	 500	 1	 1.1	 0.9;
	 47	 1	 152.9913	 38.248	 0	 0	 39	 1	 0	 500	 1	 1.1	 0.9;
	 48	 1	 213.2478	 30.269	 0	 0	 39	 1	 0	 500	 1	 1.1	 0.9;
	 49	 1	 0	 0	 0	 0	 39	 1	 0	 500	 1	 1.1	 0.9;
	 50	 1	 0	 0	 0	 0	 39	 1	 0	 500	 1	 1.1	 0.9;
	 51	 1	 0	 0	 0	 0	 39	 1	 0	 500	 1	 1.1	 0.9;
	 52	 1	 461.3573	 63.071	 0	 0	 39	 1	 0	 230	 1	 1.1	 0.9;
	 53	 1	 200.2788	 24.716	 0	 0	 39	 1	 0	 230	 1	 1.1	 0.9;
	 54	 1	 170.957	 39.785	 0	 0	 39	 1	 0	 230	 1	 1.1	 0.9;
	 55	 1	 241.8392	 34.44	 0	 0	 39	 1	 0	 230	 1	 1.1	 0.9;
	 56	 1	 233.1345	 47.114	 0	 0	 39	 1	 0	 230	 1	 1.1	 0.9;
	 57	 1	 174.5029	-0.634	 0	 0	 39	 1	 0	 230	 1	 1.1	 0.9;
	 58	 1	 329.5484	 43.435	 0	 0	 39	 1	 0	 230	 1	 1.1	 0.9;
	 59	 1	 227.7536	 52.549	 0	 0	 39	 1	 0	 230	 1	 1.1	 0.9;
	 60	 1	 254.4589	 53.402	 0	 0	 39	 1	 0	 230	 1	 1.1	 0.9;
	 61	 1	 155.0024	 0	 0	 0	 39	 1	 0	 230	 1	 1.1	 0.9;
	 62	 1	 238.1882	 43.995	 0	 0	 39	 1	 0	 230	 1	 1.1	 0.9;
	 63	 1	 319.2809	 75.464	 0	 0	 39	 1	 0	 230	 1	 1.1	 0.9;
	 64	 1	 184.5093	 24.094	 0	 0	 39	 1	 0	 230	 1	 1.1	 0.9;
	 65	 1	 172.5018	 23.677	 0	 0	 39	 1	 0	 230	 1	 1.1	 0.9;
	 66	 1	 150.8902	 34.821	 0	 0	 39	 1	 0	 230	 1	 1.1	 0.9;
	 67	 1	 253.4454	 31.919	 0	 0	 39	 1	 0	 230	 1	 1.1	 0.9;
	 68	 1	 399.0618	 67.021	 0	 0	 39	 1	 0	 230	 1	 1.1	 0.9;
	 69	 1	 332.4879	 47.165	 0	 0	 39	 1	 0	 230	 1	 1.1	 0.9;
	 70	 1	 0	 0	 0	 0	 39	 1	 0	 115	 1	 1.1	 0.9;
	 71	 1	 267.3529	 16.668	 0	 0	 39	 1	 0	 115	 1	 1.1	 0.9;
	 72	 2	 0	 0	 0	 0	 39	 1	 0	 20	 1	 1.1	 0.9;
	 73	 2	 0	 0	 0	 0	 39	 1	 0	 20	 1	 1.1	 0.9;
	 74	 3	 0	 0	 0	 0	 39	 1	 0	 20	 1	 1.1	 0.9;
	 75	 1	 0	 0	 0	 0	 80	 1	 0	 500	 1	 1.1	 0.9;
	 76	 1	 0	 0	 0	 0	 80	 1	 0	 500	 1	 1.1	 0.9;
	 77	 1	 652.6717	 85.141	 0	 0	 80	 1	 0	 230	 1	 1.1	 0.9;
	 78	 1	 3787.8915	 494.11	 0	 0	 80	 1	 0	 230	 1	 1.1	 0.9;
	 79	 1	 1321.2379	 172.37	 0	 0	 80	 1	 0	 230	 1	 1.1	 0.9;
	 80	 2	 0	 0	 0	 0	 80	 1	 0	 20	 1	 1.1	 0.9;
	 81	 2	 0	 0	 0	 0	 80	 1	 0	 20	 1	 1.1	 0.9;
];

mpc_regionR1.gen = [
%	bus         Pg          Qg          Qmax        Qmin        Vg          mBase       status      Pmax        Pmin        Pc1         Pc2         Qc1min      Qc1max      Qc2min      Qc2max      ramp_agc    ramp_10     ramp_30     ramp_q      apf         
	 6	 21	 6.5	 42	-29	 1	 100	 1	 42	 0;
	 6	 0.05	 0	 500	-500	 1	 100	 1	 0.1	 0;
	 7	 184.5	 19	 239	-201	 1	 100	 1	 369	 0;
	 7	 13	 7.5	 100	-85	 1	 100	 1	 26	 0;
	 13	 60.5	 13	 101	-75	 1	 100	 1	 121	 0;
	 13	 1314	 5	 1244	-1234	 1	 100	 1	 2628	 0;
	 13	 353.5	 85	 382	-212	 1	 100	 1	 707	 0;
	 13	 345	 10	 75	-55	 1	 100	 1	 690	 0;
	 19	 345	 86	 398	-226	 1	 100	 1	 690	 0;
	 19	 106.5	 29.5	 202	-143	 1	 100	 1	 213	 0;
	 25	 147	 102	 510	-306	 1	 100	 1	 1218	-924;
	 26	 314	 28	 231	-175	 1	 100	 1	 628	 0;
	 26	 1008	 188.5	 939	-562	 1	 100	 1	 2016	 0;
	 28	 434	 202.5	 1004	-599	 1	 100	 1	 868	 0;
	 28	 162.5	 36	 253	-181	 1	 100	 1	 325	 0;
	 28	 15	 1.5	 13	-10	 1	 100	 1	 30	 0;
	 30	 26.5	 3	 20	-14	 1	 100	 1	 53	 0;
	 30	 71.5	 20	 74	-34	 1	 100	 1	 143	 0;
	 32	 127.5	 39.5	 200	-121	 1	 100	 1	 255	 0;
	 39	 1133.5	 97.5	 1175	-980	 1	 100	 1	 2267	 0;
	 40	 690.5	 91.5	 662	-479	 1	 100	 1	 1381	 0;
	 40	-255	 0.25	 0.5	 0	 1	 100	 1	 0	-510;
	 41	 510.5	 62	 476	-352	 1	 100	 1	 1021	 0;
	 72	 157	 18	 151	-115	 1	 100	 1	 314	 0;
	 72	 1848	 169	 1284	-946	 1	 100	 1	 3696	 0;
	 73	 739	 325	 1150	-500	 1	 100	 1	 1478	 0;
	 74	 295	 140.5	 363	-82	 1	 100	 1	 590	 0;
	 74	 95.5	 11	 77	-55	 1	 100	 1	 191	 0;
	 74	 657	 96.5	 500	-307	 1	 100	 1	 1314	 0;
	 74	 1752.5	 107.5	 1256	-1041	 1	 100	 1	 3505	 0;
	 74	 146.5	 1	 13	-11	 1	 100	 1	 293	 0;
	 74	-224.5	 0.25	 0.5	 0	 1	 100	 1	 0	-449;
	 80	 786	 0	 786	-786	 1	 100	 1	 1572	 0;
	 81	 1280	 0	 1280	-1280	 1	 100	 1	 2560	 0;
	 81	 344	 0	 344	-344	 1	 100	 1	 688	 0;
];

mpc_regionR1.branch = [
%	fbus        tbus        r           x           b           rateA       rateB       rateC       ratio       angle       status      angmin      angmax      
	 1	 2	 0.0011	 0.0127	 0.048	 2478	 2478	 2478	 0	 0	 1	-30	 30;
	 1	 2	 0.0011	 0.0127	 0.048	 2478	 2478	 2478	 0	 0	 1	-30	 30;
	 2	 3	 0.0011	 0.0127	 0.048	 2478	 2478	 2478	 0	 0	 1	-30	 30;
	 2	 3	 0.0011	 0.0127	 0.048	 2478	 2478	 2478	 0	 0	 1	-30	 30;
	 2	 3	 0.0011	 0.0127	 0.048	 2478	 2478	 2478	 0	 0	 1	-30	 30;
	 2	 15	 0.0011	 0.0127	 0.048	 2478	 2478	 2478	 0	 0	 1	-30	 30;
	 3	 11	 0.0011	 0.0127	 0.048	 2478	 2478	 2478	 0	 0	 1	-30	 30;
	 3	 11	 0.0011	 0.0127	 0.048	 2478	 2478	 2478	 0	 0	 1	-30	 30;
	 3	 18	 0.0011	 0.0127	 0.048	 2478	 2478	 2478	 0	 0	 1	-30	 30;
	 3	 18	 0.0011	 0.0127	 0.048	 2478	 2478	 2478	 0	 0	 1	-30	 30;
	 4	 5	 0.00312	 0.02886	 0.15252	 1089	 1089	 1089	 0	 0	 1	-30	 30;
	 8	 9	 0.0011	 0.0127	 0.048	 2478	 2478	 2478	 0	 0	 1	-30	 30;
	 8	 9	 0.0011	 0.0127	 0.048	 2478	 2478	 2478	 0	 0	 1	-30	 30;
	 8	 10	 0.0011	 0.0127	 0.048	 2478	 2478	 2478	 0	 0	 1	-30	 30;
	 8	 10	 0.0011	 0.0127	 0.048	 2478	 2478	 2478	 0	 0	 1	-30	 30;
	 8	 68	 0.00312	 0.02886	 0.15252	 1089	 1089	 1089	 0	 0	 1	-30	 30;
	 8	 68	 0.00312	 0.02886	 0.15252	 1089	 1089	 1089	 0	 0	 1	-30	 30;
	 8	 69	 0.0011	 0.0127	 0.048	 2478	 2478	 2478	 0	 0	 1	-30	 30;
	 8	 69	 0.0011	 0.0127	 0.048	 2478	 2478	 2478	 0	 0	 1	-30	 30;
	 9	 10	 0.0011	 0.0127	 0.048	 2478	 2478	 2478	 0	 0	 1	-30	 30;
	 9	 10	 0.00312	 0.02886	 0.15252	 1089	 1089	 1089	 0	 0	 1	-30	 30;
	 9	 11	 0.0011	 0.0127	 0.048	 2478	 2478	 2478	 0	 0	 1	-30	 30;
	 9	 12	 0.0011	 0.0127	 0.048	 2478	 2478	 2478	 0	 0	 1	-30	 30;
	 9	 69	 0.00312	 0.02886	 0.15252	 1089	 1089	 1089	 0	 0	 1	-30	 30;
	 9	 69	 0.00312	 0.02886	 0.15252	 1089	 1089	 1089	 0	 0	 1	-30	 30;
	 10	 11	 0.0011	 0.0127	 0.048	 2478	 2478	 2478	 0	 0	 1	-30	 30;
	 10	 16	 0.0011	 0.0127	 0.048	 2478	 2478	 2478	 0	 0	 1	-30	 30;
	 10	 16	 0.00312	 0.02886	 0.15252	 1089	 1089	 1089	 0	 0	 1	-30	 30;
	 10	 18	 0.0011	 0.0127	 0.048	 2478	 2478	 2478	 0	 0	 1	-30	 30;
	 10	 68	 0.00312	 0.02886	 0.15252	 1089	 1089	 1089	 0	 0	 1	-30	 30;
	 10	 68	 0.00312	 0.02886	 0.15252	 1089	 1089	 1089	 0	 0	 1	-30	 30;
	 11	 12	 0.0011	 0.0127	 0.048	 2478	 2478	 2478	 0	 0	 1	-30	 30;
	 11	 12	 0.0011	 0.0127	 0.048	 2478	 2478	 2478	 0	 0	 1	-30	 30;
	 11	 68	 0.00312	 0.02886	 0.15252	 1089	 1089	 1089	 0	 0	 1	-30	 30;
	 11	 68	 0.00312	 0.02886	 0.15252	 1089	 1089	 1089	 0	 0	 1	-30	 30;
	 12	 59	 0.00312	 0.02886	 0.15252	 1089	 1089	 1089	 0	 0	 1	-30	 30;
	 12	 60	 0.00312	 0.02886	 0.15252	 1089	 1089	 1089	 0	 0	 1	-30	 30;
	 14	 47	 0.00053	 0.01297	 0	 2434	 2434	 2434	 0	 0	 1	-30	 30;
	 14	 48	 1e-05	-0.00755	 0	 4184	 4184	 4184	 0	 0	 1	-30	 30;
	 15	 17	 0.0011	 0.0127	 0.048	 2478	 2478	 2478	 0	 0	 1	-30	 30;
	 15	 17	 0.0011	 0.0127	 0.048	 2478	 2478	 2478	 0	 0	 1	-30	 30;
	 16	 17	 0.0011	 0.0127	 0.048	 2478	 2478	 2478	 0	 0	 1	-30	 30;
	 16	 17	 0.0011	 0.0127	 0.048	 2478	 2478	 2478	 0	 0	 1	-30	 30;
	 16	 17	 0.0011	 0.0127	 0.048	 2478	 2478	 2478	 0	 0	 1	-30	 30;
	 16	 63	 0.00312	 0.02886	 0.15252	 1089	 1089	 1089	 0	 0	 1	-30	 30;
	 16	 63	 0.00312	 0.02886	 0.15252	 1089	 1089	 1089	 0	 0	 1	-30	 30;
	 18	 68	 0.00312	 0.02886	 0.15252	 1089	 1089	 1089	 0	 0	 1	-30	 30;
	 20	 21	 0.00312	 0.02886	 0.15252	 1089	 1089	 1089	 0	 0	 1	-30	 30;
	 20	 21	 0.00312	 0.02886	 0.15252	 1089	 1089	 1089	 0	 0	 1	-30	 30;
	 20	 23	 0.00312	 0.02886	 0.15252	 1089	 1089	 1089	 0	 0	 1	-30	 30;
	 20	 24	 0.00312	 0.02886	 0.15252	 1089	 1089	 1089	 0	 0	 1	-30	 30;
	 20	 24	 0.00312	 0.02886	 0.15252	 1089	 1089	 1089	 0	 0	 1	-30	 30;
	 20	 36	 0.00312	 0.02886	 0.15252	 1089	 1089	 1089	 0	 0	 1	-30	 30;
	 22	 23	 0.00312	 0.02886	 0.15252	 1089	 1089	 1089	 0	 0	 1	-30	 30;
	 22	 36	 0.00312	 0.02886	 0.15252	 1089	 1089	 1089	 0	 0	 1	-30	 30;
	 23	 36	 0.00312	 0.02886	 0.15252	 1089	 1089	 1089	 0	 0	 1	-30	 30;
	 23	 36	 0.00312	 0.02886	 0.15252	 1089	 1089	 1089	 0	 0	 1	-30	 30;
	 23	 62	 0.00312	 0.02886	 0.15252	 1089	 1089	 1089	 0	 0	 1	-30	 30;
	 23	 63	 0.00312	 0.02886	 0.15252	 1089	 1089	 1089	 0	 0	 1	-30	 30;
	 24	 52	 0.00312	 0.02886	 0.15252	 1089	 1089	 1089	 0	 0	 1	-30	 30;
	 24	 52	 0.00312	 0.02886	 0.15252	 1089	 1089	 1089	 0	 0	 1	-30	 30;
	 27	 59	 0.00312	 0.02886	 0.15252	 1089	 1089	 1089	 0	 0	 1	-30	 30;
	 27	 60	 0.00312	 0.02886	 0.15252	 1089	 1089	 1089	 0	 0	 1	-30	 30;
	 29	 70	 0.00312	 0.02886	 0.15252	 1089	 1089	 1089	 0	 0	 1	-30	 30;
	 31	 71	 0.00312	 0.02886	 0.15252	 1089	 1089	 1089	 0	 0	 1	-30	 30;
	 31	 71	 0.00312	 0.02886	 0.15252	 1089	 1089	 1089	 0	 0	 1	-30	 30;
	 33	 34	 0.00079	 0.01937	 1.3285	 1630	 1630	 1630	 0	 0	 1	-30	 30;
	 33	 35	 0.00087	 0.02087	 1.4571	 1513	 1513	 1513	 0	 0	 1	-30	 30;
	 33	 35	 0.00087	 0.02087	 1.4571	 1513	 1513	 1513	 0	 0	 1	-30	 30;
	 34	 42	 0.00072	 0.016	 1.0879	 1973	 1973	 1973	 0	 0	 1	-30	 30;
	 34	 46	 0.00083	 0.01985	 0	 1590	 1590	 1590	 0	 0	 1	-30	 30;
	 35	 42	 2e-05	-0.00998	 0	 3166	 3166	 3166	 0	 0	 1	-30	 30;
	 35	 43	 0	-0.00935	 0	 3379	 3379	 3379	 0	 0	 1	-30	 30;
	 35	 44	 0	-0.00944	 0	 3347	 3347	 3347	 0	 0	 1	-30	 30;
	 35	 45	 0	-0.00935	 0	 3379	 3379	 3379	 0	 0	 1	-30	 30;
	 35	 46	 0.00153	 0.0147	 0	 2138	 2138	 2138	 0	 0	 1	-30	 30;
	 36	 38	 0.00312	 0.02886	 0.15252	 1089	 1089	 1089	 0	 0	 1	-30	 30;
	 37	 38	 0.00312	 0.02886	 0.15252	 1089	 1089	 1089	 0	 0	 1	-30	 30;
	 46	 47	 0.00053	 0.01297	 0	 2434	 2434	 2434	 0	 0	 1	-30	 30;
	 46	 48	 0.00093	 0.03644	 1.3895	 867	 867	 867	 0	 0	 1	-30	 30;
	 46	 76	 2e-05	-0.01331	 0	 2374	 2374	 2374	 0	 0	 1	-30	 30;
	 48	 49	 1e-05	-0.01098	 0	 2877	 2877	 2877	 0	 0	 1	-30	 30;
	 48	 50	 0.00098	 0.01035	 0	 3039	 3039	 3039	 0	 0	 1	-30	 30;
	 48	 76	 0.00165	 0.05719	 2.4774	 553	 553	 553	 0	 0	 1	-30	 30;
	 49	 50	 0.0016	 0.01229	 0	 2549	 2549	 2549	 0	 0	 1	-30	 30;
	 50	 51	 0.00072	 0.00346	 0	 8938	 8938	 8938	 0	 0	 1	-30	 30;
	 52	 53	 0.00312	 0.02886	 0.15252	 1089	 1089	 1089	 0	 0	 1	-30	 30;
	 52	 68	 0.00312	 0.02886	 0.15252	 1089	 1089	 1089	 0	 0	 1	-30	 30;
	 52	 78	 0.01382	 0.09268	 0.1106	 338	 338	 338	 0	 0	 1	-30	 30;
	 53	 65	 0.00312	 0.02886	 0.15252	 1089	 1089	 1089	 0	 0	 1	-30	 30;
	 54	 64	 0.00312	 0.02886	 0.15252	 1089	 1089	 1089	 0	 0	 1	-30	 30;
	 54	 65	 0.00312	 0.02886	 0.15252	 1089	 1089	 1089	 0	 0	 1	-30	 30;
	 55	 56	 0.02482	 0.16938	 0.20232	 185	 185	 185	 0	 0	 1	-30	 30;
	 55	 69	 0.0148	 0.10101	 0.12066	 310	 310	 310	 0	 0	 1	-30	 30;
	 56	 57	 0.01382	 0.09268	 0.1106	 338	 338	 338	 0	 0	 1	-30	 30;
	 56	 61	 0.01668	 0.11381	 0.13608	 275	 275	 275	 0	 0	 1	-30	 30;
	 56	 66	 0.01113	 0.06678	 0.07286	 467	 467	 467	 0	 0	 1	-30	 30;
	 56	 66	 0.0105	 0.0654	 0.0686	 477	 477	 477	 0	 0	 1	-30	 30;
	 56	 66	 0.01105	 0.06642	 0.0716	 470	 470	 470	 0	 0	 1	-30	 30;
	 56	 69	 0.03903	 0.27403	 0.31072	 115	 115	 115	 0	 0	 1	-30	 30;
	 56	 77	 0.01382	 0.09268	 0.1106	 338	 338	 338	 0	 0	 1	-30	 30;
	 56	 77	 0.01382	 0.09268	 0.1106	 338	 338	 338	 0	 0	 1	-30	 30;
	 57	 69	 0.03058	 0.2046	 0.24472	 153	 153	 153	 0	 0	 1	-30	 30;
	 58	 65	 0.00312	 0.02886	 0.15252	 1089	 1089	 1089	 0	 0	 1	-30	 30;
	 58	 65	 0.00312	 0.02886	 0.15252	 1089	 1089	 1089	 0	 0	 1	-30	 30;
	 58	 68	 0.00312	 0.02886	 0.15252	 1089	 1089	 1089	 0	 0	 1	-30	 30;
	 58	 78	 0.01382	 0.09268	 0.1106	 338	 338	 338	 0	 0	 1	-30	 30;
	 60	 69	 0.00312	 0.02886	 0.15252	 1089	 1089	 1089	 0	 0	 1	-30	 30;
	 61	 69	 0.02235	 0.16106	 0.18342	 195	 195	 195	 0	 0	 1	-30	 30;
	 64	 67	 0.00312	 0.02886	 0.15252	 1089	 1089	 1089	 0	 0	 1	-30	 30;
	 65	 67	 0.00312	 0.02886	 0.15252	 1089	 1089	 1089	 0	 0	 1	-30	 30;
	 68	 79	 0.01382	 0.09268	 0.1106	 338	 338	 338	 0	 0	 1	-30	 30;
	 68	 79	 0.01382	 0.09268	 0.1106	 338	 338	 338	 0	 0	 1	-30	 30;
	 75	 76	 0.00159	 0.0111	 0	 2817	 2817	 2817	 0	 0	 1	-30	 30;
	 77	 78	 0.01952	 0.13702	 0.15536	 229	 229	 229	 0	 0	 1	-30	 30;
	 77	 79	 0.03903	 0.27403	 0.31072	 115	 115	 115	 0	 0	 1	-30	 30;
	 77	 79	 0.03903	 0.27403	 0.31072	 115	 115	 115	 0	 0	 1	-30	 30;
	 78	 79	 0.01952	 0.13702	 0.15536	 229	 229	 229	 0	 0	 1	-30	 30;
	 2	 4	 0.00089	 0.0299	 0	 1056	 1056	 1056	 1	 0	 1	-30	 30;
	 14	 16	 0.0003	 0.0174	 0	 1816	 1816	 1816	 1	 0	 1	-30	 30;
	 14	 16	 0.0003	 0.0174	 0	 1816	 1816	 1816	 1	 0	 1	-30	 30;
	 14	 16	 0.0003	 0.0174	 0	 1816	 1816	 1816	 1	 0	 1	-30	 30;
	 34	 36	 0.0003	 0.0174	 0	 1816	 1816	 1816	 1	 0	 1	-30	 30;
	 35	 37	 0.0003	 0.0174	 0	 1816	 1816	 1816	 1	 0	 1	-30	 30;
	 35	 37	 0.0002	 0.0119	 0	 2655	 2655	 2655	 1	 0	 1	-30	 30;
	 46	 62	 0.0003	 0.0174	 0	 1816	 1816	 1816	 1	 0	 1	-30	 30;
	 47	 63	 0.0003	 0.0174	 0	 1816	 1816	 1816	 1	 0	 1	-30	 30;
	 48	 68	 0.0003	 0.0174	 0	 1816	 1816	 1816	 1	 0	 1	-30	 30;
	 49	 69	 0.0002	 0.0125	 0	 2527	 2527	 2527	 1	 0	 1	-30	 30;
	 50	 67	 0.0003	 0.0174	 0	 1816	 1816	 1816	 1	 0	 1	-30	 30;
	 51	 66	 0.0001	 0.0174	 0	 1816	 1816	 1816	 1	 0	 1	-30	 30;
	 56	 70	 0.00089	 0.0299	 0	 1056	 1056	 1056	 1	 0	 1	-30	 30;
	 65	 71	 0.00089	 0.0299	 0	 1056	 1056	 1056	 1	 0	 1	-30	 30;
	 65	 71	 0.00089	 0.0299	 0	 1056	 1056	 1056	 1	 0	 1	-30	 30;
	 75	 77	 0.0001	 0.0174	 0	 1816	 1816	 1816	 1	 0	 1	-30	 30;
	 76	 79	 0.0003	 0.0174	 0	 1816	 1816	 1816	 1	 0	 1	-30	 30;
	 3	 6	 0	 0.0005	 0	 63175	 63175	 63175	 1	 0	 1	-30	 30;
	 5	 7	 0	 0.0005	 0	 63175	 63175	 63175	 1	 0	 1	-30	 30;
	 11	 13	 0	 0.0005	 0	 63175	 63175	 63175	 1	 0	 1	-30	 30;
	 16	 19	 0	 0.0005	 0	 63175	 63175	 63175	 1	 0	 1	-30	 30;
	 21	 25	 0	 0.0005	 0	 63175	 63175	 63175	 1	 0	 1	-30	 30;
	 22	 26	 0	 0.0005	 0	 63175	 63175	 63175	 1	 0	 1	-30	 30;
	 27	 28	 0	 0.0005	 0	 63175	 63175	 63175	 1	 0	 1	-30	 30;
	 29	 30	 0	 0.0005	 0	 63175	 63175	 63175	 1	 0	 1	-30	 30;
	 31	 32	 0	 0.0005	 0	 63175	 63175	 63175	 1	 0	 1	-30	 30;
	 33	 39	 0	 0.0005	 0	 63175	 63175	 63175	 1	 0	 1	-30	 30;
	 37	 40	 0	 0.0005	 0	 63175	 63175	 63175	 1	 0	 1	-30	 30;
	 38	 41	 0	 0.0005	 0	 63175	 63175	 63175	 1	 0	 1	-30	 30;
	 47	 73	 0	 0.0005	 0	 63175	 63175	 63175	 1	 0	 1	-30	 30;
	 66	 72	 0	 0.0005	 0	 63175	 63175	 63175	 1	 0	 1	-30	 30;
	 68	 74	 0	 0.0005	 0	 63175	 63175	 63175	 1	 0	 1	-30	 30;
	 77	 80	 0	 0.0005	 0	 63175	 63175	 63175	 1	 0	 1	-30	 30;
	 78	 81	 0	 0.0005	 0	 63175	 63175	 63175	 1	 0	 1	-30	 30;
];

mpc_regionR1.gencost = [
%	2           startup     shutdown    n           c(n-1)...c0 
	 2	 0	 0	 3	 0	 60.295192	 0;
	 2	 0	 0	 3	 0	 115.784252	 0;
	 2	 0	 0	 3	 0	 19.747758	 0;
	 2	 0	 0	 3	 0	 139.406671	 0;
	 2	 0	 0	 3	 0	 40.62684	 0;
	 2	 0	 0	 3	 0	 33.390411	 0;
	 2	 0	 0	 3	 0	 9.116809	 0;
	 2	 0	 0	 3	 0	 22.599236	 0;
	 2	 0	 0	 3	 0	 36.557379	 0;
	 2	 0	 0	 3	 0	 29.600547	 0;
	 2	 0	 0	 3	 0	 23.127115	 0;
	 2	 0	 0	 3	 0	 19.029025	 0;
	 2	 0	 0	 3	 0	 26.628665	 0;
	 2	 0	 0	 3	 0	 23.06917	 0;
	 2	 0	 0	 3	 0	 19.755158	 0;
	 2	 0	 0	 3	 0	 111.468783	 0;
	 2	 0	 0	 3	 0	 37.36433	 0;
	 2	 0	 0	 3	 0	 29.305594	 0;
	 2	 0	 0	 3	 0	 43.487946	 0;
	 2	 0	 0	 3	 0	 18.009089	 0;
	 2	 0	 0	 3	 0	 27.186796	 0;
	 2	 0	 0	 3	 0	 0	 0;
	 2	 0	 0	 3	 0	 39.855613	 0;
	 2	 0	 0	 3	 0	 52.291471	 0;
	 2	 0	 0	 3	 0	 32.821502	 0;
	 2	 0	 0	 3	 0	 22.434142	 0;
	 2	 0	 0	 3	 0	 35.060251	 0;
	 2	 0	 0	 3	 0	 58.640953	 0;
	 2	 0	 0	 3	 0	 40.111583	 0;
	 2	 0	 0	 3	 0	 10.724076	 0;
	 2	 0	 0	 3	 0	 29.604602	 0;
	 2	 0	 0	 3	 0	 7.148098	 0;
	 2	 0	 0	 3	 0	 114.365663	 0;
	 2	 0	 0	 3	 0	 24.14915	 0;
	 2	 0	 0	 3	 0	 24.948779	 0;
];


% -------------------- mpc_regionR2 --------------------

mpc_regionR2.version = '2';
mpc_regionR2.baseMVA = 100.0000;
mpc_regionR2.bus = [
%	bus_i       type        Pd          Qd          Gs          Bs          area        Vm          Va          baseKV      zone        Vmax        Vmin        
	 1	 1	 1037.9499	 5.521	 0	 0	 10	 1	 0	 345	 1	 1.1	 0.9;
	 2	 2	 0	 0	 0	 0	 10	 1	 0	 20	 1	 1.1	 0.9;
	 3	 1	 2050.7816	 0	 0	 0	 90	 1	 0	 345	 1	 1.1	 0.9;
	 4	 2	 0	 0	 0	 0	 90	 1	 0	 20	 1	 1.1	 0.9;
	 5	 1	 0	 0	 0	 0	 40	 1	 0	 500	 1	 1.1	 0.9;
	 6	 1	 168.6841	 21.998	 0	 0	 40	 1	 0	 500	 1	 1.1	 0.9;
	 7	 1	 0	 0	 0	 0	 40	 1	 0	 500	 1	 1.1	 0.9;
	 8	 1	 270.4505	 35.297	 0	 0	 40	 1	 0	 500	 1	 1.1	 0.9;
	 9	 1	 480.1144	 157.418	 0	 0	 40	 1	 0	 500	 1	 1.1	 0.9;
	 10	 1	 0	 0	 0	 0	 40	 1	 0	 500	 1	 1.1	 0.9;
	 11	 1	 0	 0	 0	 0	 40	 1	 0	 500	 1	 1.1	 0.9;
	 12	 1	 285.1446	 37.198	 0	 0	 40	 1	 0	 345	 1	 1.1	 0.9;
	 13	 1	 2208.7429	 431.395	 0	 0	 40	 1	 0	 230	 1	 1.1	 0.9;
	 14	 1	 3133.6101	 0	 0	 0	 90	 1	 0	 230	 1	 1.1	 0.9;
	 15	 2	 0	 0	 0	 0	 40	 1	 0	 20	 1	 1.1	 0.9;
	 16	 2	 0	 0	 0	 0	 40	 1	 0	 20	 1	 1.1	 0.9;
	 17	 2	 0	 0	 0	 0	 40	 1	 0	 20	 1	 1.1	 0.9;
	 18	 1	 0	 0	 0	 0	 40	 1	 0	 500	 1	 1.1	 0.9;
	 19	 1	 0	 0	 0	 0	 40	 1	 0	 500	 1	 1.1	 0.9;
	 20	 1	 0	 0	 0	 0	 40	 1	 0	 500	 1	 1.1	 0.9;
	 21	 1	 0	 0	 0	 0	 40	 1	 0	 500	 1	 1.1	 0.9;
	 22	 1	 0	 0	 0	 0	 40	 1	 0	 500	 1	 1.1	 0.9;
	 23	 1	 0	 0	 0	 0	 40	 1	 0	 500	 1	 1.1	 0.9;
	 24	 1	 0	 0	 0	 0	 40	 1	 0	 500	 1	 1.1	 0.9;
	 25	 1	 0	 0	 0	 0	 40	 1	 0	 500	 1	 1.1	 0.9;
	 26	 1	 995.0275	 129.784	 0	 0	 40	 1	 0	 500	 1	 1.1	 0.9;
	 27	 1	 480.649	 68.664	 0	 0	 40	 1	 0	 500	 1	 1.1	 0.9;
	 28	 1	 11.6269	 1.509	 0	 0	 40	 1	 0	 500	 1	 1.1	 0.9;
	 29	 1	 2527.7724	 329.74	 0	 0	 40	 1	 0	 230	 1	 1.1	 0.9;
	 30	 2	 0	 0	 0	 0	 40	 1	 0	 20	 1	 1.1	 0.9;
	 31	 2	 0	 0	 0	 0	 40	 1	 0	 20	 1	 1.1	 0.9;
	 32	 1	 5762.6589	 461.013	 0	 0	 40	 1	 0	 500	 1	 1.1	 0.9;
	 33	 1	 4558.2389	 594.626	 0	 0	 40	 1	 0	 500	 1	 1.1	 0.9;
	 34	 1	 4379.6262	 571.331	 0	 0	 40	 1	 0	 500	 1	 1.1	 0.9;
	 35	 1	 1014.5202	 132.34	 0	 0	 40	 1	 0	 500	 1	 1.1	 0.9;
	 36	 2	 0	 0	 0	 0	 40	 1	 0	 20	 1	 1.1	 0.9;
	 37	 2	 0	 0	 0	 0	 40	 1	 0	 20	 1	 1.1	 0.9;
	 38	 1	 7574.0522	 1721.375	 0	 0	 50	 1	 0	 500	 1	 1.1	 0.9;
	 39	 1	 9003.9839	 1174.359	 0	 0	 50	 1	 0	 500	 1	 1.1	 0.9;
	 40	 1	 615.2178	 80.253	 0	 0	 50	 1	 0	 230	 1	 1.1	 0.9;
	 41	 1	 0	 0	 0	 0	 50	 1	 0	 230	 1	 1.1	 0.9;
	 42	 2	 0	 0	 0	 0	 50	 1	 0	 20	 1	 1.1	 0.9;
	 43	 2	 0	 0	 0	 0	 50	 1	 0	 20	 1	 1.1	 0.9;
	 44	 1	 0	 0	 0	 0	 61	 1	 0	 500	 1	 1.1	 0.9;
	 45	 1	 1053.1441	-345.277	 0	 0	 61	 1	 0	 345	 1	 1.1	 0.9;
	 46	 1	 391.888	 51.111	 0	 0	 61	 1	 0	 345	 1	 1.1	 0.9;
	 47	 1	 1694.958	 221.085	 0	 0	 61	 1	 0	 230	 1	 1.1	 0.9;
	 48	 2	 0	 0	 0	 0	 61	 1	 0	 20	 1	 1.1	 0.9;
	 49	 1	 205.82	 26.857	 0	 0	 60	 1	 0	 500	 1	 1.1	 0.9;
	 50	 1	 88.7215	 13.528	 0	 0	 60	 1	 0	 500	 1	 1.1	 0.9;
	 51	 1	 1112.3464	 145.093	 0	 0	 60	 1	 0	 230	 1	 1.1	 0.9;
	 52	 1	 1199.2957	 156.461	 0	 0	 60	 1	 0	 230	 1	 1.1	 0.9;
	 53	 1	 489.2825	 86.344	 0	 0	 60	 1	 0	 230	 1	 1.1	 0.9;
	 54	 2	 0	 0	 0	 0	 60	 1	 0	 20	 1	 1.1	 0.9;
	 55	 2	 0	 0	 0	 0	 60	 1	 0	 20	 1	 1.1	 0.9;
	 56	 1	 516.3779	 67.362	 0	 0	 60	 1	 0	 345	 1	 1.1	 0.9;
	 57	 1	 591.8185	 77.219	 0	 0	 60	 1	 0	 345	 1	 1.1	 0.9;
	 58	 1	 746.6019	 97.404	 0	 0	 60	 1	 0	 230	 1	 1.1	 0.9;
	 59	 1	 0	 0	 0	 0	 60	 1	 0	 230	 1	 1.1	 0.9;
	 60	 1	 60.2324	 19.752	 0	 0	 60	 1	 0	 230	 1	 1.1	 0.9;
	 61	 2	 0	 0	 0	 0	 60	 1	 0	 20	 1	 1.1	 0.9;
	 62	 2	 0	 0	 0	 0	 60	 1	 0	 20	 1	 1.1	 0.9;
	 63	 1	 1672.3727	 218.148	 0	 0	 64	 1	 0	 345	 1	 1.1	 0.9;
	 64	 1	 272.5124	 35.566	 0	 0	 64	 1	 0	 115	 1	 1.1	 0.9;
	 65	 1	 2.1985	 0.272	 0	 0	 64	 1	 0	 345	 1	 1.1	 0.9;
	 66	 1	 28.98	 3.775	 0	 0	 64	 1	 0	 345	 1	 1.1	 0.9;
	 67	 2	 0	 0	 0	 0	 64	 1	 0	 20	 1	 1.1	 0.9;
	 68	 1	 195.5463	 64.128	 0	 0	 60	 1	 0	 345	 1	 1.1	 0.9;
	 69	 1	 1555.5773	 277.672	 0	 0	 60	 1	 0	 345	 1	 1.1	 0.9;
	 70	 1	 441.1533	 144.603	 0	 0	 60	 1	 0	 345	 1	 1.1	 0.9;
	 71	 1	 296.9666	 38.73	 0	 0	 60	 1	 0	 345	 1	 1.1	 0.9;
	 72	 1	 6.7947	 2.231	 0	 0	 60	 1	 0	 345	 1	 1.1	 0.9;
	 73	 1	 0	 0	 0	 0	 60	 1	 0	 345	 1	 1.1	 0.9;
	 74	 1	 540.775	-61.354	 0	 0	 60	 1	 0	 345	 1	 1.1	 0.9;
	 75	 1	 131.8343	 43.208	 0	 0	 60	 1	 0	 345	 1	 1.1	 0.9;
	 76	 1	 8.5932	 2.817	 0	 0	 60	 1	 0	 345	 1	 1.1	 0.9;
	 77	 1	 1946.0167	-103.877	 0	 0	 60	 1	 0	 230	 1	 1.1	 0.9;
	 78	 2	 0	 0	 0	 0	 60	 1	 0	 20	 1	 1.1	 0.9;
	 79	 1	 7453.9144	 972.35	 0	 0	 60	 1	 0	 345	 1	 1.1	 0.9;
	 80	 1	 2554.8345	-138.069	 0	 0	 60	 1	 0	 345	 1	 1.1	 0.9;
	 81	 2	 0	 0	 0	 0	 60	 1	 0	 20	 1	 1.1	 0.9;
	 82	 2	 0	 0	 0	 0	 60	 1	 0	 20	 1	 1.1	 0.9;
];

mpc_regionR2.gen = [
%	bus         Pg          Qg          Qmax        Qmin        Vg          mBase       status      Pmax        Pmin        Pc1         Pc2         Qc1min      Qc1max      Qc2min      Qc2max      ramp_agc    ramp_10     ramp_30     ramp_q      apf         
	 2	 2293.5	 0	 2294	-2294	 1	 100	 1	 4587	 0;
	 2	 917.5	 0	 918	-918	 1	 100	 1	 1835	 0;
	 2	 700	 0	 700	-700	 1	 100	 1	 1400	 0;
	 4	 950	 0	 950	-950	 1	 100	 1	 1900	 0;
	 17	 102	 0	 102	-102	 1	 100	 1	 204	 0;
	 17	 1459	 0	 1459	-1459	 1	 100	 1	 2918	 0;
	 17	 187.5	 0	 188	-188	 1	 100	 1	 375	 0;
	 15	 501.5	 0	 502	-502	 1	 100	 1	 1003	 0;
	 15	 489	 0	 489	-489	 1	 100	 1	 978	 0;
	 15	 37.5	 0	 38	-38	 1	 100	 1	 75	 0;
	 15	 120	 0	 120	-120	 1	 100	 1	 240	 0;
	 16	 255	 0	 255	-255	 1	 100	 1	 510	 0;
	 16	 306.5	 0	 307	-307	 1	 100	 1	 613	 0;
	 16	 1835.5	 0	 1836	-1836	 1	 100	 1	 3671	 0;
	 16	 488	 0	 488	-488	 1	 100	 1	 976	 0;
	 30	 6481.5	 0	 6482	-6482	 1	 100	 1	 12963	 0;
	 30	 120	 0	 120	-120	 1	 100	 1	 240	 0;
	 31	 1472.5	 0	 1473	-1473	 1	 100	 1	 2945	 0;
	 31	 2846.5	 0	 2847	-2847	 1	 100	 1	 5693	 0;
	 31	 580	 0	 580	-580	 1	 100	 1	 1160	 0;
	 31	 230.5	 0	 231	-231	 1	 100	 1	 461	 0;
	 31	 87.5	 0	 88	-88	 1	 100	 1	 175	 0;
	 36	 728	 0	 728	-728	 1	 100	 1	 1456	 0;
	 36	 658.5	 0	 659	-659	 1	 100	 1	 1317	 0;
	 36	 1807.5	 0	 1808	-1808	 1	 100	 1	 3615	 0;
	 36	 23.5	 0	 24	-24	 1	 100	 1	 47	 0;
	 37	 592	 0	 592	-592	 1	 100	 1	 1184	 0;
	 37	 286.5	 0	 287	-287	 1	 100	 1	 573	 0;
	 37	 107.5	 0	 108	-108	 1	 100	 1	 215	 0;
	 42	 605	 0	 605	-605	 1	 100	 1	 1210	 0;
	 42	 4399.4	 0	 4399	-4399	 1	 100	 1	 8798.8	 0;
	 43	 2977	 0	 2977	-2977	 1	 100	 1	 5954	 0;
	 43	 2200	 0	 2200	-2200	 1	 100	 1	 4400	 0;
	 43	 2205.1	 0	 2205	-2205	 1	 100	 1	 4410.2	 0;
	 43	 54	 0	 54	-54	 1	 100	 1	 108	 0;
	 43	 270.5	 0	 271	-271	 1	 100	 1	 541	 0;
	 48	 7.5	 0	 8	-8	 1	 100	 1	 15	 0;
	 48	 146.5	 0	 147	-147	 1	 100	 1	 293	 0;
	 48	 1072	 0	 1072	-1072	 1	 100	 1	 2144	 0;
	 48	 17.5	 0	 18	-18	 1	 100	 1	 35	 0;
	 48	 118	 0	 118	-118	 1	 100	 1	 236	 0;
	 54	 1255.5	 0	 1256	-1256	 1	 100	 1	 2511	 0;
	 54	 70	 0	 70	-70	 1	 100	 1	 140	 0;
	 55	 63.5	 0	 64	-64	 1	 100	 1	 127	 0;
	 55	 346.5	 0	 347	-347	 1	 100	 1	 693	 0;
	 55	 95	 0	 95	-95	 1	 100	 1	 190	 0;
	 61	 1671	 0	 1671	-1671	 1	 100	 1	 3342	 0;
	 61	 124	 0	 124	-124	 1	 100	 1	 248	 0;
	 62	 967.5	 0	 968	-968	 1	 100	 1	 1935	 0;
	 62	 329.5	 0	 330	-330	 1	 100	 1	 659	 0;
	 62	 406	 0	 406	-406	 1	 100	 1	 812	 0;
	 67	 282.5	 0	 283	-283	 1	 100	 1	 565	 0;
	 67	 59	 0	 59	-59	 1	 100	 1	 118	 0;
	 67	 536	 0	 536	-536	 1	 100	 1	 1072	 0;
	 67	 11.5	 0	 12	-12	 1	 100	 1	 23	 0;
	 67	 25	 0	 25	-25	 1	 100	 1	 50	 0;
	 78	 1923.5	 0	 1924	-1924	 1	 100	 1	 3847	 0;
	 78	 18.5	 0	 19	-19	 1	 100	 1	 37	 0;
	 78	 880	 0	 880	-880	 1	 100	 1	 1760	 0;
	 78	 19.5	 0	 20	-20	 1	 100	 1	 39	 0;
	 78	 30.5	 0	 31	-31	 1	 100	 1	 61	 0;
	 81	 1418.5	 0	 1419	-1419	 1	 100	 1	 2837	 0;
	 81	 2092	 0	 2092	-2092	 1	 100	 1	 4184	 0;
	 81	 0	 0	 167	-167	 1	 100	 1	 333	-333;
	 81	 298.5	 0	 299	-299	 1	 100	 1	 597	 0;
	 81	 0.05	 0	 1000	-1000	 1	 100	 1	 0.1	 0;
	 82	 826	 0	 826	-826	 1	 100	 1	 1652	 0;
	 82	 489	 0	 489	-489	 1	 100	 1	 978	 0;
	 82	 345.5	 0	 346	-346	 1	 100	 1	 691	 0;
	 82	 0	 0	 23	-23	 1	 100	 1	 200	-200;
];

mpc_regionR2.branch = [
%	fbus        tbus        r           x           b           rateA       rateB       rateC       ratio       angle       status      angmin      angmax      
	 1	 79	 0.03903	 0.27403	 2	 115	 115	 115	 0	 0	 1	-30	 30;
	 1	 80	 0.00977	 0.11	 2	 287	 287	 287	 0	 0	 1	-30	 30;
	 3	 66	 0.0108	 0.0965	 0.3296	 326	 326	 326	 0	 0	 1	-30	 30;
	 3	 71	 0.0018	 0.0245	 0.4392	 1286	 1286	 1286	 0	 0	 1	-30	 30;
	 3	 71	 0.0018	 0.0245	 0.4392	 1286	 1286	 1286	 0	 0	 1	-30	 30;
	 5	 35	 0.00078	 0.00239	 1.1381	 12565	 12565	 12565	 0	 0	 1	-30	 30;
	 5	 18	 0.00072	 0.01382	 1.27572	 2283	 2283	 2283	 0	 0	 1	-30	 30;
	 5	 22	 0.00078	 0.01502	 1.1381	 2101	 2101	 2101	 0	 0	 1	-30	 30;
	 5	 25	 0.00074	 0.01413	 1.06634	 2233	 2233	 2233	 0	 0	 1	-30	 30;
	 6	 7	 0.00122	 0.02373	 2.2071	 1330	 1330	 1330	 0	 0	 1	-30	 30;
	 6	 18	 0.00012	 0.00238	 0.21926	 13256	 13256	 13256	 0	 0	 1	-30	 30;
	 6	 19	 0.0006	 0.01036	 1.01456	 3044	 3044	 3044	 0	 0	 1	-30	 30;
	 7	 44	 0.00264	 0.02689	 5.29066	 1170	 1170	 1170	 0	 0	 1	-30	 30;
	 8	 9	 0.00063	 0.01412	 1.09756	 2235	 2235	 2235	 0	 0	 1	-30	 30;
	 8	 9	 0.00109	 0.02408	 1.55542	 1311	 1311	 1311	 0	 0	 1	-30	 30;
	 8	 9	 0.00108	 0.02409	 1.55348	 1310	 1310	 1310	 0	 0	 1	-30	 30;
	 8	 19	 0.00041	 0.00737	 0.72694	 4280	 4280	 4280	 0	 0	 1	-30	 30;
	 8	 20	 0.00066	 0.01266	 0.95976	 2492	 2492	 2492	 0	 0	 1	-30	 30;
	 8	 23	 0.00066	 0.01266	 0.95976	 2492	 2492	 2492	 0	 0	 1	-30	 30;
	 9	 10	 0.00023	 0.00451	 0.3332	 6995	 6995	 6995	 0	 0	 1	-30	 30;
	 9	 10	 0.0002	 0.00446	 0.305	 7076	 7076	 7076	 0	 0	 1	-30	 30;
	 9	 27	 0.0012	 0.02316	 1.7152	 1363	 1363	 1363	 0	 0	 1	-30	 30;
	 9	 27	 0.0003	 0.02	 3.6	 1580	 1580	 1580	 0	 0	 1	-30	 30;
	 9	 33	 0.0002	 0.0082	 1.3	 3851	 3851	 3851	 0	 0	 1	-30	 30;
	 9	 50	 0.00196	 0.03304	 1.88	 955	 955	 955	 0	 0	 1	-30	 30;
	 10	 11	 1e-05	 0.0003	 0.01434	 105233	 105233	 105233	 0	 0	 1	-30	 30;
	 10	 11	 1e-05	 0.0003	 0.01844	 105233	 105233	 105233	 0	 0	 1	-30	 30;
	 10	 33	 0.0002	 0.0082	 1.3	 3851	 3851	 3851	 0	 0	 1	-30	 30;
	 12	 63	 0.0062	 0.0673	 1.1156	 468	 468	 468	 0	 0	 1	-30	 30;
	 13	 14	 6e-05	 0.00131	 0.00378	 24088	 24088	 24088	 0	 0	 1	-30	 30;
	 13	 14	 6e-05	 0.00116	 0.00332	 27195	 27195	 27195	 0	 0	 1	-30	 30;
	 13	 29	 0.002	 0.02	 0.8	 1572	 1572	 1572	 0	 0	 1	-30	 30;
	 20	 21	 0	 0.00165	 0	 19144	 19144	 19144	 0	 0	 1	-30	 30;
	 21	 22	 0	-0.01263	 0	 2501	 2501	 2501	 0	 0	 1	-30	 30;
	 23	 24	 0	 0.00165	 0	 19144	 19144	 19144	 0	 0	 1	-30	 30;
	 24	 25	 0	-0.01263	 0	 2501	 2501	 2501	 0	 0	 1	-30	 30;
	 26	 27	 0.00113	 0.02069	 1.85526	 1525	 1525	 1525	 0	 0	 1	-30	 30;
	 26	 27	 0.00113	 0.02069	 1.85526	 1525	 1525	 1525	 0	 0	 1	-30	 30;
	 26	 28	 0.0007	 0.074	 4.87	 427	 427	 427	 0	 0	 1	-30	 30;
	 26	 28	 0.002	 0.02	 0.8	 1572	 1572	 1572	 0	 0	 1	-30	 30;
	 26	 32	 0.0002	 0.0082	 1.3	 3851	 3851	 3851	 0	 0	 1	-30	 30;
	 26	 32	 0.0002	 0.0082	 1.3	 3851	 3851	 3851	 0	 0	 1	-30	 30;
	 27	 32	 0.0002	 0.0082	 1.3	 3851	 3851	 3851	 0	 0	 1	-30	 30;
	 27	 32	 0.0002	 0.0082	 1.3	 3851	 3851	 3851	 0	 0	 1	-30	 30;
	 27	 33	 0.0002	 0.0082	 1.3	 3851	 3851	 3851	 0	 0	 1	-30	 30;
	 27	 33	 0.0002	 0.0082	 1.3	 3851	 3851	 3851	 0	 0	 1	-30	 30;
	 27	 50	 0.00142	 0.02258	 1.88	 1397	 1397	 1397	 0	 0	 1	-30	 30;
	 28	 50	 0.0007	 0.074	 4.87	 427	 427	 427	 0	 0	 1	-30	 30;
	 29	 41	 0.002	 0.02	 0.8	 1572	 1572	 1572	 0	 0	 1	-30	 30;
	 32	 33	 0.00109	 0.02408	 1.55542	 1311	 1311	 1311	 0	 0	 1	-30	 30;
	 32	 38	 0.00083	 0.0239	 3.3	 1321	 1321	 1321	 0	 0	 1	-30	 30;
	 33	 34	 0.00066	 0.00165	 0.95976	 17775	 17775	 17775	 0	 0	 1	-30	 30;
	 34	 35	 0.00074	 0.01266	 1.0822	 2491	 2491	 2491	 0	 0	 1	-30	 30;
	 38	 39	 0.0035	 0.07	 4.606	 451	 451	 451	 0	 0	 1	-30	 30;
	 40	 41	 0.002	 0.02	 0.8	 1572	 1572	 1572	 0	 0	 1	-30	 30;
	 45	 46	 0.0012	 0.02316	 1.7152	 1363	 1363	 1363	 0	 0	 1	-30	 30;
	 45	 56	 0	 0.0046	 0	 6867	 6867	 6867	 0	 0	 1	-30	 30;
	 45	 65	 0.0062	 0.0673	 1.1156	 468	 468	 468	 0	 0	 1	-30	 30;
	 46	 56	 0	 0.0046	 0	 6867	 6867	 6867	 0	 0	 1	-30	 30;
	 46	 56	 0	 0.0046	 0	 6867	 6867	 6867	 0	 0	 1	-30	 30;
	 46	 68	 0.0062	 0.0673	 1.1156	 468	 468	 468	 0	 0	 1	-30	 30;
	 46	 68	 0.0062	 0.0673	 1.1156	 468	 468	 468	 0	 0	 1	-30	 30;
	 47	 52	 0.0108	 0.0965	 0.3296	 326	 326	 326	 0	 0	 1	-30	 30;
	 47	 60	 0.0108	 0.0965	 0.3296	 326	 326	 326	 0	 0	 1	-30	 30;
	 49	 50	 0.00179	 0.01405	 3.68	 2231	 2231	 2231	 0	 0	 1	-30	 30;
	 51	 53	 0.0007	 0.074	 4.87	 427	 427	 427	 0	 0	 1	-30	 30;
	 52	 53	 0.0007	 0.025	 4.87	 1263	 1263	 1263	 0	 0	 1	-30	 30;
	 51	 58	 0.0108	 0.0965	 0.3296	 326	 326	 326	 0	 0	 1	-30	 30;
	 51	 58	 0.0108	 0.0965	 0.3296	 326	 326	 326	 0	 0	 1	-30	 30;
	 51	 59	 0.0108	 0.0965	 0.3296	 326	 326	 326	 0	 0	 1	-30	 30;
	 57	 79	 0	 0.0046	 0	 6867	 6867	 6867	 0	 0	 1	-30	 30;
	 58	 59	 0.0108	 0.0965	 0.3296	 326	 326	 326	 0	 0	 1	-30	 30;
	 58	 60	 0.0108	 0.0965	 0.3296	 326	 326	 326	 0	 0	 1	-30	 30;
	 58	 60	 0.0108	 0.0965	 0.3296	 326	 326	 326	 0	 0	 1	-30	 30;
	 60	 77	 0.0108	 0.0965	 0.3296	 326	 326	 326	 0	 0	 1	-30	 30;
	 60	 77	 0.0108	 0.0965	 0.3296	 326	 326	 326	 0	 0	 1	-30	 30;
	 63	 65	 0.0062	 0.0673	 1.1156	 468	 468	 468	 0	 0	 1	-30	 30;
	 63	 65	 0.0062	 0.0673	 1.1156	 468	 468	 468	 0	 0	 1	-30	 30;
	 63	 66	 0.0108	 0.0965	 0.3296	 326	 326	 326	 0	 0	 1	-30	 30;
	 65	 66	 0.0062	 0.0673	 1.1156	 468	 468	 468	 0	 0	 1	-30	 30;
	 66	 74	 0.0108	 0.0965	 0.3296	 326	 326	 326	 0	 0	 1	-30	 30;
	 68	 69	 0.0024	 0.00332	 0.5849	 7711	 7711	 7711	 0	 0	 1	-30	 30;
	 68	 71	 0.0021	 0.00238	 0.3845	 9952	 9952	 9952	 0	 0	 1	-30	 30;
	 68	 76	 0.0016	 0.00226	 0.381	 11408	 11408	 11408	 0	 0	 1	-30	 30;
	 68	 76	 0.0016	 0.00226	 0.381	 11408	 11408	 11408	 0	 0	 1	-30	 30;
	 69	 70	 0.0052	 0.0602	 1.01	 523	 523	 523	 0	 0	 1	-30	 30;
	 69	 70	 0.0049	 0.0537	 0.8843	 586	 586	 586	 0	 0	 1	-30	 30;
	 69	 71	 0.0017	 0.00225	 0.3992	 11202	 11202	 11202	 0	 0	 1	-30	 30;
	 69	 71	 0.0021	 0.00238	 0.3845	 9952	 9952	 9952	 0	 0	 1	-30	 30;
	 69	 71	 0.0017	 0.00225	 0.3992	 11202	 11202	 11202	 0	 0	 1	-30	 30;
	 69	 71	 0.0021	 0.00238	 0.3845	 9952	 9952	 9952	 0	 0	 1	-30	 30;
	 69	 75	 0.0012	 0.0172	 0.2987	 1833	 1833	 1833	 0	 0	 1	-30	 30;
	 69	 76	 0.0008	 0.00106	 0.2039	 23786	 23786	 23786	 0	 0	 1	-30	 30;
	 69	 76	 0.0008	 0.00106	 0.2039	 23786	 23786	 23786	 0	 0	 1	-30	 30;
	 70	 71	 0.0032	 0.0349	 0.5722	 902	 902	 902	 0	 0	 1	-30	 30;
	 70	 72	 0.0096	 0.0878	 1.4265	 358	 358	 358	 0	 0	 1	-30	 30;
	 70	 74	 0.0034	 0.0374	 0.6208	 842	 842	 842	 0	 0	 1	-30	 30;
	 70	 74	 0.0034	 0.0372	 0.6182	 846	 846	 846	 0	 0	 1	-30	 30;
	 70	 75	 0.0034	 0.0392	 0.6524	 803	 803	 803	 0	 0	 1	-30	 30;
	 71	 74	 0.0038	 0.034	 0.5824	 924	 924	 924	 0	 0	 1	-30	 30;
	 71	 74	 0.0032	 0.0349	 0.5722	 902	 902	 902	 0	 0	 1	-30	 30;
	 71	 80	 0.00811	 0.1369	 2.4348	 231	 231	 231	 0	 0	 1	-30	 30;
	 79	 80	 0	 0.0046	 0	 6867	 6867	 6867	 0	 0	 1	-30	 30;
	 5	 12	 0	 0.0072	 0	 4388	 4388	 4388	 1	 0	 1	-30	 30;
	 10	 13	 0.0002	 0.01181	 0	 2675	 2675	 2675	 1	 0	 1	-30	 30;
	 10	 13	 9e-05	 0.00735	 0	 4298	 4298	 4298	 1	 0	 1	-30	 30;
	 11	 14	 0	 0.00221	 0	 14293	 14293	 14293	 1	 0	 1	-30	 30;
	 28	 29	 0	 0.01	 0	 3159	 3159	 3159	 1	 0	 1	-30	 30;
	 39	 40	 0	 0.01	 0	 3159	 3159	 3159	 1	 0	 1	-30	 30;
	 44	 45	 0	 0.0072	 0	 4388	 4388	 4388	 1	 0	 1	-30	 30;
	 46	 47	 0.0003	 0.0181	 0	 1745	 1745	 1745	 1	 0	 1	-30	 30;
	 49	 51	 0.0003	 0.0181	 0	 1745	 1745	 1745	 1	 0	 1	-30	 30;
	 50	 52	 0.0003	 0.0181	 0	 1745	 1745	 1745	 1	 0	 1	-30	 30;
	 56	 58	 0.0003	 0.0181	 0	 1745	 1745	 1745	 1	 0	 1	-30	 30;
	 57	 59	 0.0003	 0.0181	 0	 1745	 1745	 1745	 1	 0	 1	-30	 30;
	 63	 64	 0.00089	 0.0299	 0	 1056	 1056	 1056	 1	 0	 1	-30	 30;
	 63	 64	 0.00089	 0.0299	 0	 1056	 1056	 1056	 1	 0	 1	-30	 30;
	 68	 77	 0.0003	 0.0181	 0	 1745	 1745	 1745	 1	 0	 1	-30	 30;
	 68	 77	 0.0003	 0.0181	 0	 1745	 1745	 1745	 1	 0	 1	-30	 30;
	 72	 73	 0	 0.0195	 0	 1620	 1620	 1620	 0	 0	 1	-30	 30;
	 1	 2	 0	 0.0005	 0	 63175	 63175	 63175	 1	 0	 1	-30	 30;
	 3	 4	 0	 0.0005	 0	 63175	 63175	 63175	 1	 0	 1	-30	 30;
	 5	 15	 0	 0.0005	 0	 63175	 63175	 63175	 1	 0	 1	-30	 30;
	 9	 16	 0	 0.0005	 0	 63175	 63175	 63175	 1	 0	 1	-30	 30;
	 13	 17	 0	 0.0005	 0	 63175	 63175	 63175	 1	 0	 1	-30	 30;
	 26	 30	 0	 0.0005	 0	 63175	 63175	 63175	 1	 0	 1	-30	 30;
	 27	 31	 0	 0.0005	 0	 63175	 63175	 63175	 1	 0	 1	-30	 30;
	 32	 36	 0	 0.0005	 0	 63175	 63175	 63175	 1	 0	 1	-30	 30;
	 33	 37	 0	 0.0005	 0	 63175	 63175	 63175	 1	 0	 1	-30	 30;
	 38	 42	 0	 0.0005	 0	 63175	 63175	 63175	 1	 0	 1	-30	 30;
	 39	 43	 0	 0.0005	 0	 63175	 63175	 63175	 1	 0	 1	-30	 30;
	 45	 48	 0	 0.0005	 0	 63175	 63175	 63175	 1	 0	 1	-30	 30;
	 49	 54	 0	 0.0005	 0	 63175	 63175	 63175	 1	 0	 1	-30	 30;
	 53	 55	 0	 0.0005	 0	 63175	 63175	 63175	 1	 0	 1	-30	 30;
	 58	 61	 0	 0.0005	 0	 63175	 63175	 63175	 1	 0	 1	-30	 30;
	 60	 62	 0	 0.0005	 0	 63175	 63175	 63175	 1	 0	 1	-30	 30;
	 65	 67	 0	 0.0005	 0	 63175	 63175	 63175	 1	 0	 1	-30	 30;
	 70	 78	 0	 0.0005	 0	 63175	 63175	 63175	 1	 0	 1	-30	 30;
	 79	 81	 0	 0.0005	 0	 63175	 63175	 63175	 1	 0	 1	-30	 30;
	 80	 82	 0	 0.0005	 0	 63175	 63175	 63175	 1	 0	 1	-30	 30;
];

mpc_regionR2.gencost = [
%	2           startup     shutdown    n           c(n-1)...c0 
	 2	 0	 0	 3	 0	 50.253548	 0;
	 2	 0	 0	 3	 0	 7.78454	 0;
	 2	 0	 0	 3	 0	 7.164105	 0;
	 2	 0	 0	 3	 0	 25.623984	 0;
	 2	 0	 0	 3	 0	 14.12028	 0;
	 2	 0	 0	 3	 0	 32.489744	 0;
	 2	 0	 0	 3	 0	 32.920521	 0;
	 2	 0	 0	 3	 0	 28.879314	 0;
	 2	 0	 0	 3	 0	 7.795262	 0;
	 2	 0	 0	 3	 0	 14.49579	 0;
	 2	 0	 0	 3	 0	 33.529629	 0;
	 2	 0	 0	 3	 0	 14.148633	 0;
	 2	 0	 0	 3	 0	 22.360086	 0;
	 2	 0	 0	 3	 0	 23.153973	 0;
	 2	 0	 0	 3	 0	 32.076694	 0;
	 2	 0	 0	 3	 0	 31.799668	 0;
	 2	 0	 0	 3	 0	 48.375219	 0;
	 2	 0	 0	 3	 0	 20.048511	 0;
	 2	 0	 0	 3	 0	 13.581555	 0;
	 2	 0	 0	 3	 0	 31.58479	 0;
	 2	 0	 0	 3	 0	 45.195796	 0;
	 2	 0	 0	 3	 0	 39.759127	 0;
	 2	 0	 0	 3	 0	 14.530332	 0;
	 2	 0	 0	 3	 0	 15.136833	 0;
	 2	 0	 0	 3	 0	 42.828324	 0;
	 2	 0	 0	 3	 0	 14.38957	 0;
	 2	 0	 0	 3	 0	 38.966466	 0;
	 2	 0	 0	 3	 0	 15.486578	 0;
	 2	 0	 0	 3	 0	 41.492611	 0;
	 2	 0	 0	 3	 0	 28.466295	 0;
	 2	 0	 0	 3	 0	 27.25565	 0;
	 2	 0	 0	 3	 0	 24.837547	 0;
	 2	 0	 0	 3	 0	 28.019241	 0;
	 2	 0	 0	 3	 0	 11.786936	 0;
	 2	 0	 0	 3	 0	 29.985739	 0;
	 2	 0	 0	 3	 0	 28.815976	 0;
	 2	 0	 0	 3	 0	 37.698432	 0;
	 2	 0	 0	 3	 0	 48.831293	 0;
	 2	 0	 0	 3	 0	 32.211888	 0;
	 2	 0	 0	 3	 0	 105.104656	 0;
	 2	 0	 0	 3	 0	 37.879273	 0;
	 2	 0	 0	 3	 0	 33.634935	 0;
	 2	 0	 0	 3	 0	 30.107834	 0;
	 2	 0	 0	 3	 0	 37.793235	 0;
	 2	 0	 0	 3	 0	 31.239418	 0;
	 2	 0	 0	 3	 0	 28.663274	 0;
	 2	 0	 0	 3	 0	 24.405861	 0;
	 2	 0	 0	 3	 0	 38.01667	 0;
	 2	 0	 0	 3	 0	 32.247846	 0;
	 2	 0	 0	 3	 0	 24.38896	 0;
	 2	 0	 0	 3	 0	 11.81616	 0;
	 2	 0	 0	 3	 0	 29.852868	 0;
	 2	 0	 0	 3	 0	 28.252173	 0;
	 2	 0	 0	 3	 0	 102.698216	 0;
	 2	 0	 0	 3	 0	 23.707527	 0;
	 2	 0	 0	 3	 0	 26.935133	 0;
	 2	 0	 0	 3	 0	 19.266401	 0;
	 2	 0	 0	 3	 0	 27.88954	 0;
	 2	 0	 0	 3	 0	 20.456741	 0;
	 2	 0	 0	 3	 0	 26.092954	 0;
	 2	 0	 0	 3	 0	 37.210311	 0;
	 2	 0	 0	 3	 0	 27.338561	 0;
	 2	 0	 0	 3	 0	 7.157129	 0;
	 2	 0	 0	 3	 0	 38.956112	 0;
	 2	 0	 0	 3	 0	 40.642352	 0;
	 2	 0	 0	 3	 0	 18.781578	 0;
	 2	 0	 0	 3	 0	 43.330859	 0;
	 2	 0	 0	 3	 0	 31.905335	 0;
	 2	 0	 0	 3	 0	 9.594434	 0;
	 2	 0	 0	 3	 0	 25.215165	 0;
];


% -------------------- mpc_regionR3 --------------------

mpc_regionR3.version = '2';
mpc_regionR3.baseMVA = 100.0000;
mpc_regionR3.bus = [
%	bus_i       type        Pd          Qd          Gs          Bs          area        Vm          Va          baseKV      zone        Vmax        Vmin        
	 1	 1	 0	 0	 0	 0	 10	 1	 0	 500	 1	 1.1	 0.9;
	 2	 1	 226.8419	-37.472	 0	 0	 10	 1	 0	 345	 1	 1.1	 0.9;
	 3	 1	 2153.3224	 366.856	 0	 0	 10	 1	 0	 230	 1	 1.1	 0.9;
	 4	 2	 0	 0	 0	 0	 10	 1	 0	 20	 1	 1.1	 0.9;
	 5	 1	 4527.3661	-137.044	 0	 0	 10	 1	 0	 500	 1	 1.1	 0.9;
	 6	 1	 176.4436	 23.004	 0	 0	 10	 1	 0	 345	 1	 1.1	 0.9;
	 7	 2	 0	 0	 0	 0	 10	 1	 0	 20	 1	 1.1	 0.9;
	 8	 1	 166.9882	-2.012	 0	 0	 10	 1	 0	 500	 1	 1.1	 0.9;
	 9	 1	 875.61	 287.131	 0	 0	 10	 1	 0	 500	 1	 1.1	 0.9;
	 10	 2	 0	 0	 0	 0	 10	 1	 0	 20	 1	 1.1	 0.9;
	 11	 1	 2704.7793	 352.826	 0	 0	 10	 1	 0	 500	 1	 1.1	 0.9;
	 12	 1	 17.5556	 2.304	 0	 0	 10	 1	 0	 500	 1	 1.1	 0.9;
	 13	 1	 6235.136	 813.349	 0	 0	 10	 1	 0	 345	 1	 1.1	 0.9;
	 14	 2	 0	 0	 0	 0	 10	 1	 0	 20	 1	 1.1	 0.9;
	 15	 2	 0	 0	 0	 0	 10	 1	 0	 20	 1	 1.1	 0.9;
	 16	 1	 6535.5365	 1524.594	 0	 0	 10	 1	 0	 500	 1	 1.1	 0.9;
	 17	 1	 5366.6305	-600.162	 0	 0	 10	 1	 0	 500	 1	 1.1	 0.9;
	 18	 1	 0	 0	 0	 0	 10	 1	 0	 230	 1	 1.1	 0.9;
	 19	 2	 0	 0	 0	 0	 10	 1	 0	 20	 1	 1.1	 0.9;
	 20	 1	 2207.188	 287.916	 0	 0	 20	 1	 0	 230	 1	 1.1	 0.9;
	 21	 2	 0	 0	 0	 0	 20	 1	 0	 20	 1	 1.1	 0.9;
	 22	 1	 281.1513	 54.83	 0	 0	 21	 1	 0	 230	 1	 1.1	 0.9;
	 23	 2	 0	 0	 0	 0	 21	 1	 0	 20	 1	 1.1	 0.9;
	 24	 1	 0	 0	 0	 0	 22	 1	 0	 500	 1	 1.1	 0.9;
	 25	 1	 1545.949	 268.565	 0	 0	 22	 1	 0	 230	 1	 1.1	 0.9;
	 26	 1	 1708.5525	 278.273	 0	 0	 22	 1	 0	 230	 1	 1.1	 0.9;
	 27	 2	 0	 0	 0	 0	 22	 1	 0	 20	 1	 1.1	 0.9;
	 28	 1	 0	 0	 0	 0	 22	 1	 0	 500	 1	 1.1	 0.9;
	 29	 1	 0	 0	 0	 0	 22	 1	 0	 230	 1	 1.1	 0.9;
	 30	 2	 0	 0	 0	 0	 22	 1	 0	 20	 1	 1.1	 0.9;
	 31	 1	 843.2926	 76.663	 0	 0	 24	 1	 0	 500	 1	 1.1	 0.9;
	 32	 1	 882.3636	 105.214	 0	 0	 24	 1	 0	 500	 1	 1.1	 0.9;
	 33	 1	 1080.0201	 81.979	 0	 0	 24	 1	 0	 500	 1	 1.1	 0.9;
	 34	 1	 1050.004	 38.543	 0	 0	 24	 1	 0	 500	 1	 1.1	 0.9;
	 35	 1	 0	 0	 0	 0	 24	 1	 0	 500	 1	 1.1	 0.9;
	 36	 1	 824.6826	 22.901	 0	 0	 24	 1	 0	 230	 1	 1.1	 0.9;
	 37	 1	 737.4036	-40.751	 0	 0	 24	 1	 0	 230	 1	 1.1	 0.9;
	 38	 1	 1732.771	-36.535	 0	 0	 24	 1	 0	 230	 1	 1.1	 0.9;
	 39	 1	 1743.2768	-72.623	 0	 0	 24	 1	 0	 230	 1	 1.1	 0.9;
	 40	 1	 1601.7777	-86.698	 0	 0	 24	 1	 0	 230	 1	 1.1	 0.9;
	 41	 1	 1576.7872	 58.184	 0	 0	 24	 1	 0	 230	 1	 1.1	 0.9;
	 42	 1	 1087.6239	 75.955	 0	 0	 24	 1	 0	 230	 1	 1.1	 0.9;
	 43	 2	 0	 0	 0	 0	 24	 1	 0	 20	 1	 1.1	 0.9;
	 44	 1	 0	 0	 0	 0	 25	 1	 0	 500	 1	 1.1	 0.9;
	 45	 1	 2369.1531	-91.905	 0	 0	 25	 1	 0	 230	 1	 1.1	 0.9;
	 46	 1	 1845.9256	 201.991	 0	 0	 25	 1	 0	 230	 1	 1.1	 0.9;
	 47	 2	 0	 0	 0	 0	 25	 1	 0	 20	 1	 1.1	 0.9;
	 48	 1	-1863.9044	 0	 0	 0	 90	 1	 0	 500	 1	 1.1	 0.9;
	 49	 1	 0	 0	 0	 0	 26	 1	 0	 500	 1	 1.1	 0.9;
	 50	 1	 99.2784	 12.955	 0	 0	 26	 1	 0	 500	 1	 1.1	 0.9;
	 51	 1	 0	 0	 0	 0	 26	 1	 0	 500	 1	 1.1	 0.9;
	 52	 1	 0	 0	 0	 0	 26	 1	 0	 287	 1	 1.1	 0.9;
	 53	 1	 0	 0	 0	 0	 26	 1	 0	 287	 1	 1.1	 0.9;
	 54	 1	 0	 0	 0	 0	 26	 1	 0	 287	 1	 1.1	 0.9;
	 55	 1	 99.2784	 12.955	 0	 0	 26	 1	 0	 230	 1	 1.1	 0.9;
	 56	 1	 134.0261	 26.805	 0	 0	 26	 1	 0	 230	 1	 1.1	 0.9;
	 57	 1	 99.2784	 12.955	 0	 0	 26	 1	 0	 230	 1	 1.1	 0.9;
	 58	 1	 99.2784	 12.955	 0	 0	 26	 1	 0	 230	 1	 1.1	 0.9;
	 59	 1	 120.1277	 24.819	 0	 0	 26	 1	 0	 230	 1	 1.1	 0.9;
	 60	 1	 317.693	 64.532	 0	 0	 26	 1	 0	 230	 1	 1.1	 0.9;
	 61	 1	 137.0047	 27.798	 0	 0	 26	 1	 0	 230	 1	 1.1	 0.9;
	 62	 1	 801.9756	 131.148	 0	 0	 26	 1	 0	 230	 1	 1.1	 0.9;
	 63	 1	 116.1565	 23.827	 0	 0	 26	 1	 0	 230	 1	 1.1	 0.9;
	 64	 1	 120.1277	 24.819	 0	 0	 26	 1	 0	 230	 1	 1.1	 0.9;
	 65	 1	 881.2994	-6.155	 0	 0	 26	 1	 0	 230	 1	 1.1	 0.9;
	 66	 1	-2773.8339	 0	 0	 0	 90	 1	 0	 230	 1	 1.1	 0.9;
	 67	 1	 203.7206	 17.473	 0	 0	 26	 1	 0	 230	 1	 1.1	 0.9;
	 68	 1	 235.4897	-62.745	 0	 0	 26	 1	 0	 138	 1	 1.1	 0.9;
	 69	 2	 0	 0	 0	 0	 26	 1	 0	 20	 1	 1.1	 0.9;
	 70	 2	 0	 0	 0	 0	 26	 1	 0	 20	 1	 1.1	 0.9;
	 71	 2	 0	 0	 0	 0	 26	 1	 0	 20	 1	 1.1	 0.9;
	 72	 2	 0	 0	 0	 0	 26	 1	 0	 20	 1	 1.1	 0.9;
	 73	 1	 0	 0	 0	 0	 24	 1	 0	 500	 1	 1.1	 0.9;
	 74	 1	 0	 0	 0	 0	 24	 1	 0	 500	 1	 1.1	 0.9;
	 75	 1	 0	 0	 0	 0	 38	 1	 0	 500	 1	 1.1	 0.9;
	 76	 1	 0	 0	 0	 0	 38	 1	 0	 500	 1	 1.1	 0.9;
	 77	 1	 0	 0	 0	 0	 38	 1	 0	 500	 1	 1.1	 0.9;
];

mpc_regionR3.gen = [
%	bus         Pg          Qg          Qmax        Qmin        Vg          mBase       status      Pmax        Pmin        Pc1         Pc2         Qc1min      Qc1max      Qc2min      Qc2max      ramp_agc    ramp_10     ramp_30     ramp_q      apf         
	 4	 1030	 0	 1030	-1030	 1	 100	 1	 2060	 0;
	 4	 357	 0	 357	-357	 1	 100	 1	 714	 0;
	 7	 307.5	 0	 308	-308	 1	 100	 1	 615	 0;
	 7	 1915.4	 0	 1916	-1916	 1	 100	 1	 3830.8	 0;
	 7	 120	 0	 120	-120	 1	 100	 1	 240	 0;
	 10	 1207.5	 0	 1208	-1208	 1	 100	 1	 2415	 0;
	 10	 628	 0	 628	-628	 1	 100	 1	 1256	 0;
	 14	 841	 0	 841	-841	 1	 100	 1	 1682	 0;
	 14	 1219	 0	 1219	-1219	 1	 100	 1	 2438	 0;
	 15	 302.5	 0	 303	-303	 1	 100	 1	 605	 0;
	 15	 2745.5	 0	 2746	-2746	 1	 100	 1	 5491	 0;
	 15	 37.5	 0	 38	-38	 1	 100	 1	 75	 0;
	 19	 3559.35	 0	 3559	-3559	 1	 100	 1	 7118.7	 0;
	 19	 2056.5	 0	 2057	-2057	 1	 100	 1	 4113	 0;
	 19	 15	 0	 15	-15	 1	 100	 1	 30	 0;
	 21	 1070	 0	 1070	-1070	 1	 100	 1	 2140	 0;
	 21	 349.5	 0	 350	-350	 1	 100	 1	 699	 0;
	 23	 200	 0	 200	-200	 1	 100	 1	 400	 0;
	 23	 253.5	 0	 254	-254	 1	 100	 1	 507	 0;
	 23	 250	 0	 250	-250	 1	 100	 1	 500	 0;
	 23	 86	 0	 86	-86	 1	 100	 1	 172	 0;
	 27	 353	 93	 304	-118	 1	 100	 1	 706	 0;
	 27	 626.5	 215	 611	-181	 1	 100	 1	 1253	 0;
	 27	 250	 25.5	 206	-155	 1	 100	 1	 500	 0;
	 30	 559	 113	 590	-364	 1	 100	 1	 1118	 0;
	 43	 781.5	 137	 728	-454	 1	 100	 1	 1563	 0;
	 43	 1859	 367	 1902	-1168	 1	 100	 1	 3718	 0;
	 43	 1401.5	 624	 2301	-1053	 1	 100	 1	 2803	 0;
	 43	 670	 68	 659	-523	 1	 100	 1	 1340	 0;
	 43	 473	 119.5	 436	-197	 1	 100	 1	 946	 0;
	 43	 636.5	 4	 561	-553	 1	 100	 1	 1273	 0;
	 43	 1983.5	 380	 1910	-1150	 1	 100	 1	 3967	 0;
	 43	-503	 0.25	 0.5	 0	 1	 100	 1	 0	-1006;
	 47	 1116	 140	 1100	-820	 1	 100	 1	 2232	 0;
	 69	 1346	 0	 1346	-1346	 1	 100	 1	 2692	 0;
	 70	 159	 0	 159	-159	 1	 100	 1	 318	 0;
	 71	 55	 0	 110	-110	 1	 100	 1	 110	 0;
	 72	 0	 0	 100	-100	 1	 100	 1	 1272	-1272;
];

mpc_regionR3.branch = [
%	fbus        tbus        r           x           b           rateA       rateB       rateC       ratio       angle       status      angmin      angmax      
	 1	 8	 0.00177	 0.03169	 3.3446	 996	 996	 996	 0	 0	 1	-30	 30;
	 1	 9	 0.0108	 0.0965	 0.3296	 326	 326	 326	 0	 0	 1	-30	 30;
	 2	 6	 0.00179	 0.01988	 2.576	 1583	 1583	 1583	 0	 0	 1	-30	 30;
	 2	 6	 0.00179	 0.01988	 2.576	 1583	 1583	 1583	 0	 0	 1	-30	 30;
	 5	 16	 0.0028	 0.0211	 1.0194	 1485	 1485	 1485	 0	 0	 1	-30	 30;
	 5	 16	 0.0028	 0.0211	 1.0194	 1485	 1485	 1485	 0	 0	 1	-30	 30;
	 8	 9	 0.00077	 0.00536	 1.39842	 5834	 5834	 5834	 0	 0	 1	-30	 30;
	 8	 17	 0.00179	 0.02592	 3.3922	 1216	 1216	 1216	 0	 0	 1	-30	 30;
	 8	 73	 0.00207	 0.01369	 3.9516	 2282	 2282	 2282	 0	 0	 1	-30	 30;
	 9	 12	 0.0028	 0.0211	 1.0194	 1485	 1485	 1485	 0	 0	 1	-30	 30;
	 9	 17	 0.00241	 0.03489	 4.8656	 904	 904	 904	 0	 0	 1	-30	 30;
	 11	 12	 0.0028	 0.0211	 1.0194	 1485	 1485	 1485	 0	 0	 1	-30	 30;
	 11	 17	 0.0028	 0.0211	 1.0194	 1485	 1485	 1485	 0	 0	 1	-30	 30;
	 11	 17	 0.0062	 0.0673	 1.1156	 468	 468	 468	 0	 0	 1	-30	 30;
	 11	 51	 0.00179	 0.02524	 0.53546	 1249	 1249	 1249	 0	 0	 1	-30	 30;
	 11	 73	 0.0108	 0.0965	 0.3296	 326	 326	 326	 0	 0	 1	-30	 30;
	 16	 17	 0.0004	 0.0096	 0.9038	 3288	 3288	 3288	 0	 0	 1	-30	 30;
	 16	 17	 0.0004	 0.0096	 0.9038	 3288	 3288	 3288	 0	 0	 1	-30	 30;
	 16	 28	 0.00259	 0.02967	 2.153	 1061	 1061	 1061	 0	 0	 1	-30	 30;
	 16	 31	 0.00259	 0.02967	 2.153	 1061	 1061	 1061	 0	 0	 1	-30	 30;
	 18	 22	 0.00845	 0.07034	 0.15954	 446	 446	 446	 0	 0	 1	-30	 30;
	 20	 25	 0.00138	 0.05399	 0.15252	 585	 585	 585	 0	 0	 1	-30	 30;
	 20	 29	 0.00138	 0.05399	 0.15252	 585	 585	 585	 0	 0	 1	-30	 30;
	 22	 29	 0.00845	 0.07034	 0.15954	 446	 446	 446	 0	 0	 1	-30	 30;
	 24	 28	 0.00179	 0.02524	 2.153	 1249	 1249	 1249	 0	 0	 1	-30	 30;
	 25	 26	 0.00312	 0.02886	 0.15252	 1089	 1089	 1089	 0	 0	 1	-30	 30;
	 25	 26	 0.00312	 0.02886	 0.15252	 1089	 1089	 1089	 0	 0	 1	-30	 30;
	 25	 46	 0.00312	 0.02886	 0.15252	 1089	 1089	 1089	 0	 0	 1	-30	 30;
	 26	 46	 0.00312	 0.02886	 0.15252	 1089	 1089	 1089	 0	 0	 1	-30	 30;
	 26	 46	 0.00312	 0.02886	 0.15252	 1089	 1089	 1089	 0	 0	 1	-30	 30;
	 31	 34	 0.00042	 0.00905	 0.66794	 3487	 3487	 3487	 0	 0	 1	-30	 30;
	 32	 33	 0.00028	 0.00753	 0.51736	 4192	 4192	 4192	 0	 0	 1	-30	 30;
	 32	 33	 0.00035	 0.0075	 0.5536	 4208	 4208	 4208	 0	 0	 1	-30	 30;
	 32	 35	 0.00044	 0.01125	 0.8292	 2806	 2806	 2806	 0	 0	 1	-30	 30;
	 32	 35	 0.00044	 0.01125	 0.8292	 2806	 2806	 2806	 0	 0	 1	-30	 30;
	 32	 44	 0.0006	 0.0128	 0.9462	 2466	 2466	 2466	 0	 0	 1	-30	 30;
	 32	 51	 0.0002	 0.0041	 0.2962	 7696	 7696	 7696	 0	 0	 1	-30	 30;
	 32	 73	 0.00193	 0.02779	 4.6712	 1134	 1134	 1134	 0	 0	 1	-30	 30;
	 32	 74	 0.0019	 0.031	 4.1402	 1018	 1018	 1018	 0	 0	 1	-30	 30;
	 33	 44	 0.00021	 0.00457	 0.32336	 6905	 6905	 6905	 0	 0	 1	-30	 30;
	 34	 44	 0.0004	 0.0093	 0.6856	 3394	 3394	 3394	 0	 0	 1	-30	 30;
	 35	 75	 0	-0.00935	 0	 3379	 3379	 3379	 0	 0	 1	-30	 30;
	 35	 76	 0	-0.00935	 0	 3379	 3379	 3379	 0	 0	 1	-30	 30;
	 35	 77	 0	-0.0084	 0	 3761	 3761	 3761	 0	 0	 1	-30	 30;
	 36	 37	 0.0014	 0.0264	 0.102	 1195	 1195	 1195	 0	 0	 1	-30	 30;
	 36	 41	 0.00065	 0.01187	 0.04672	 2658	 2658	 2658	 0	 0	 1	-30	 30;
	 36	 41	 0.00065	 0.01187	 0.04672	 2658	 2658	 2658	 0	 0	 1	-30	 30;
	 37	 39	 0.0019	 0.0258	 0.0984	 1222	 1222	 1222	 0	 0	 1	-30	 30;
	 37	 41	 0.00845	 0.07034	 0.15954	 446	 446	 446	 0	 0	 1	-30	 30;
	 38	 39	 0.0011	 0.0127	 0.048	 2478	 2478	 2478	 0	 0	 1	-30	 30;
	 39	 40	 0.00138	 0.05399	 0.15252	 585	 585	 585	 0	 0	 1	-30	 30;
	 39	 40	 0.00138	 0.05399	 0.15252	 585	 585	 585	 0	 0	 1	-30	 30;
	 39	 42	 0.0032	 0.0395	 0.144	 798	 798	 798	 0	 0	 1	-30	 30;
	 39	 45	 0.00312	 0.02886	 0.15252	 1089	 1089	 1089	 0	 0	 1	-30	 30;
	 40	 45	 0.00312	 0.02886	 0.15252	 1089	 1089	 1089	 0	 0	 1	-30	 30;
	 40	 46	 0.00312	 0.02886	 0.15252	 1089	 1089	 1089	 0	 0	 1	-30	 30;
	 41	 42	 0.00285	 0.03649	 0.12656	 864	 864	 864	 0	 0	 1	-30	 30;
	 41	 42	 0.00138	 0.03399	 0.11252	 929	 929	 929	 0	 0	 1	-30	 30;
	 45	 46	 0.00312	 0.02886	 0.15252	 1089	 1089	 1089	 0	 0	 1	-30	 30;
	 45	 46	 0.00312	 0.02886	 0.15252	 1089	 1089	 1089	 0	 0	 1	-30	 30;
	 73	 74	 0.00056	 0.01415	 1.0429	 2231	 2231	 2231	 0	 0	 1	-30	 30;
	 48	 50	 0.00082	 0.01668	 1.18802	 1892	 1892	 1892	 0	 0	 1	-30	 30;
	 48	 51	 0	 0.00159	 0.12002	 19867	 19867	 19867	 0	 0	 1	-30	 30;
	 48	 51	 0	 0.00159	 0.12002	 19867	 19867	 19867	 0	 0	 1	-30	 30;
	 48	 49	 0.00074	 0.01861	 1.40264	 1696	 1696	 1696	 0	 0	 1	-30	 30;
	 49	 51	 0.00083	 0.01884	 1.66668	 1675	 1675	 1675	 0	 0	 1	-30	 30;
	 51	 73	 0.00179	 0.02524	 0.53546	 1249	 1249	 1249	 0	 0	 1	-30	 30;
	 52	 54	 0.0107	 0.07905	 0.3667	 396	 396	 396	 0	 0	 1	-30	 30;
	 53	 54	 0.0107	 0.07905	 0.3667	 396	 396	 396	 0	 0	 1	-30	 30;
	 55	 58	 0.00221	 0.03346	 0.07338	 942	 942	 942	 0	 0	 1	-30	 30;
	 55	 59	 0.0029	 0.038	 0.0824	 829	 829	 829	 0	 0	 1	-30	 30;
	 55	 65	 0.00309	 0.04677	 0.1008	 674	 674	 674	 0	 0	 1	-30	 30;
	 55	 66	 0.00226	 0.03422	 0.07506	 922	 922	 922	 0	 0	 1	-30	 30;
	 56	 62	 0.00047	 0.00723	 0.01624	 4360	 4360	 4360	 0	 0	 1	-30	 30;
	 56	 64	 0.00035	 0.00536	 0.01204	 5881	 5881	 5881	 0	 0	 1	-30	 30;
	 57	 60	 0.0022	 0.03422	 0.07716	 922	 922	 922	 0	 0	 1	-30	 30;
	 57	 60	 0.00238	 0.03669	 0.08284	 860	 860	 860	 0	 0	 1	-30	 30;
	 57	 63	 0.00201	 0.03074	 0.06886	 1026	 1026	 1026	 0	 0	 1	-30	 30;
	 57	 64	 0.00281	 0.04296	 0.09648	 734	 734	 734	 0	 0	 1	-30	 30;
	 58	 59	 0.00029	 0.00434	 0.0095	 7262	 7262	 7262	 0	 0	 1	-30	 30;
	 59	 62	 0.00229	 0.01583	 0.0306	 1975	 1975	 1975	 0	 0	 1	-30	 30;
	 59	 62	 0.00229	 0.01583	 0.0306	 1975	 1975	 1975	 0	 0	 1	-30	 30;
	 59	 65	 0.00141	 0.00967	 0.0194	 3233	 3233	 3233	 0	 0	 1	-30	 30;
	 59	 65	 0.00141	 0.00967	 0.0194	 3233	 3233	 3233	 0	 0	 1	-30	 30;
	 59	 65	 0.00161	 0.00971	 0.01928	 3210	 3210	 3210	 0	 0	 1	-30	 30;
	 59	 65	 0.00161	 0.00971	 0.01928	 3210	 3210	 3210	 0	 0	 1	-30	 30;
	 59	 66	 0.00027	 0.00393	 0.00918	 8019	 8019	 8019	 0	 0	 1	-30	 30;
	 59	 66	 0.00027	 0.00393	 0.00918	 8019	 8019	 8019	 0	 0	 1	-30	 30;
	 59	 66	 0.00027	 0.00393	 0.00918	 8019	 8019	 8019	 0	 0	 1	-30	 30;
	 59	 67	 0.00138	 0.01116	 0.0247	 2810	 2810	 2810	 0	 0	 1	-30	 30;
	 59	 67	 0.00138	 0.01116	 0.0247	 2810	 2810	 2810	 0	 0	 1	-30	 30;
	 60	 63	 0.00037	 0.00366	 0.0083	 8587	 8587	 8587	 0	 0	 1	-30	 30;
	 60	 64	 0.00055	 0.00586	 0.01246	 5367	 5367	 5367	 0	 0	 1	-30	 30;
	 61	 63	 0.00073	 0.01025	 0.02558	 3074	 3074	 3074	 0	 0	 1	-30	 30;
	 61	 63	 0.00073	 0.01025	 0.02558	 3074	 3074	 3074	 0	 0	 1	-30	 30;
	 62	 64	 0.00119	 0.01244	 0.02798	 2528	 2528	 2528	 0	 0	 1	-30	 30;
	 62	 64	 0.00119	 0.01244	 0.02798	 2528	 2528	 2528	 0	 0	 1	-30	 30;
	 62	 67	 0.00128	 0.00979	 0.0212	 3200	 3200	 3200	 0	 0	 1	-30	 30;
	 63	 64	 0.0011	 0.01189	 0.02514	 2646	 2646	 2646	 0	 0	 1	-30	 30;
	 1	 2	 0	 0.011	 0	 2872	 2872	 2872	 1	 0	 1	-30	 30;
	 1	 2	 0	 0.011	 0	 2872	 2872	 2872	 1	 0	 1	-30	 30;
	 2	 3	 0.00028	 0.0138	 0	 2289	 2289	 2289	 1	 0	 1	-30	 30;
	 2	 3	 0.00029	 0.0139	 0	 2272	 2272	 2272	 1	 0	 1	-30	 30;
	 5	 6	 0	 0.0146	 0	 2164	 2164	 2164	 1	 0	 1	-30	 30;
	 5	 6	 0	 0.0146	 0	 2164	 2164	 2164	 1	 0	 1	-30	 30;
	 12	 13	 0	 0.0072	 0	 4388	 4388	 4388	 1	 0	 1	-30	 30;
	 16	 18	 0.00028	 0.0138	 0	 2289	 2289	 2289	 1	 0	 1	-30	 30;
	 22	 31	 0.00028	 0.0138	 0	 2289	 2289	 2289	 1	 0	 1	-30	 30;
	 24	 25	 0	 0.005	 0	 6318	 6318	 6318	 1	 0	 1	-30	 30;
	 24	 25	 0	 0.005	 0	 6318	 6318	 6318	 1	 0	 1	-30	 30;
	 28	 29	 0	 0.005	 0	 6318	 6318	 6318	 1	 0	 1	-30	 30;
	 28	 29	 0	 0.005	 0	 6318	 6318	 6318	 1	 0	 1	-30	 30;
	 33	 40	 0	 0.005	 0	 6318	 6318	 6318	 1	 0	 1	-30	 30;
	 35	 42	 0	 0.01149	 0	 2750	 2750	 2750	 1	 0	 1	-30	 30;
	 35	 42	 0	 0.01149	 0	 2750	 2750	 2750	 1	 0	 1	-30	 30;
	 35	 42	 0	 0.01149	 0	 2750	 2750	 2750	 1	 0	 1	-30	 30;
	 36	 66	 0	 0.00115	 0	 27468	 27468	 27468	 0	 0	 1	-30	 30;
	 44	 45	 0	 0.005	 0	 6318	 6318	 6318	 1	 0	 1	-30	 30;
	 44	 45	 0	 0.005	 0	 6318	 6318	 6318	 1	 0	 1	-30	 30;
	 44	 45	 0	 0.005	 0	 6318	 6318	 6318	 1	 0	 1	-30	 30;
	 49	 59	 0.00026	 0.01386	 0	 2279	 2279	 2279	 1	 0	 1	-30	 30;
	 50	 62	 0.00013	 0.01386	 0	 2279	 2279	 2279	 1	 0	 1	-30	 30;
	 50	 62	 0.00013	 0.01386	 0	 2279	 2279	 2279	 1	 0	 1	-30	 30;
	 51	 54	 0.0002	 0.02338	 0	 1351	 1351	 1351	 1	 0	 1	-30	 30;
	 52	 68	 0.00059	 0.01491	 0	 2117	 2117	 2117	 1	 0	 1	-30	 30;
	 53	 68	 0.00059	 0.01491	 0	 2117	 2117	 2117	 1	 0	 1	-30	 30;
	 61	 68	 0.0003	 0.0133	 0	 2375	 2375	 2375	 1	 0	 1	-30	 30;
	 61	 68	 0.0003	 0.0134	 0	 2357	 2357	 2357	 1	 0	 1	-30	 30;
	 2	 4	 0	 0.0005	 0	 63175	 63175	 63175	 1	 0	 1	-30	 30;
	 5	 7	 0	 0.0005	 0	 63175	 63175	 63175	 1	 0	 1	-30	 30;
	 9	 10	 0	 0.0005	 0	 63175	 63175	 63175	 1	 0	 1	-30	 30;
	 11	 14	 0	 0.0005	 0	 63175	 63175	 63175	 1	 0	 1	-30	 30;
	 13	 15	 0	 0.0005	 0	 63175	 63175	 63175	 1	 0	 1	-30	 30;
	 16	 19	 0	 0.0005	 0	 63175	 63175	 63175	 1	 0	 1	-30	 30;
	 20	 21	 0	 0.0005	 0	 63175	 63175	 63175	 1	 0	 1	-30	 30;
	 22	 23	 0	 0.0005	 0	 63175	 63175	 63175	 1	 0	 1	-30	 30;
	 26	 27	 0	 0.0005	 0	 63175	 63175	 63175	 1	 0	 1	-30	 30;
	 29	 30	 0	 0.0005	 0	 63175	 63175	 63175	 1	 0	 1	-30	 30;
	 39	 43	 0	 0.0005	 0	 63175	 63175	 63175	 1	 0	 1	-30	 30;
	 46	 47	 0	 0.0005	 0	 63175	 63175	 63175	 1	 0	 1	-30	 30;
	 55	 72	 0	 0.0005	 0	 63175	 63175	 63175	 1	 0	 1	-30	 30;
	 57	 69	 0	 0.0005	 0	 63175	 63175	 63175	 1	 0	 1	-30	 30;
	 58	 70	 0	 0.0005	 0	 63175	 63175	 63175	 1	 0	 1	-30	 30;
	 59	 71	 0	 0.0005	 0	 63175	 63175	 63175	 1	 0	 1	-30	 30;
];

mpc_regionR3.gencost = [
%	2           startup     shutdown    n           c(n-1)...c0 
	 2	 0	 0	 3	 0	 23.55253	 0;
	 2	 0	 0	 3	 0	 17.52574	 0;
	 2	 0	 0	 3	 0	 32.436958	 0;
	 2	 0	 0	 3	 0	 31.156469	 0;
	 2	 0	 0	 3	 0	 22.737499	 0;
	 2	 0	 0	 3	 0	 19.952184	 0;
	 2	 0	 0	 3	 0	 31.242137	 0;
	 2	 0	 0	 3	 0	 24.807784	 0;
	 2	 0	 0	 3	 0	 28.383968	 0;
	 2	 0	 0	 3	 0	 34.755431	 0;
	 2	 0	 0	 3	 0	 7.698014	 0;
	 2	 0	 0	 3	 0	 105.404954	 0;
	 2	 0	 0	 3	 0	 40.082606	 0;
	 2	 0	 0	 3	 0	 25.63009	 0;
	 2	 0	 0	 3	 0	 103.348768	 0;
	 2	 0	 0	 3	 0	 6.769987	 0;
	 2	 0	 0	 3	 0	 11.50831	 0;
	 2	 0	 0	 3	 0	 37.856831	 0;
	 2	 0	 0	 3	 0	 36.108116	 0;
	 2	 0	 0	 3	 0	 49.860247	 0;
	 2	 0	 0	 3	 0	 19.863282	 0;
	 2	 0	 0	 3	 0	 28.216009	 0;
	 2	 0	 0	 3	 0	 25.247027	 0;
	 2	 0	 0	 3	 0	 39.435718	 0;
	 2	 0	 0	 3	 0	 22.418634	 0;
	 2	 0	 0	 3	 0	 25.395707	 0;
	 2	 0	 0	 3	 0	 112.919983	 0;
	 2	 0	 0	 3	 0	 29.447096	 0;
	 2	 0	 0	 3	 0	 27.360187	 0;
	 2	 0	 0	 3	 0	 43.054554	 0;
	 2	 0	 0	 3	 0	 21.95488	 0;
	 2	 0	 0	 3	 0	 21.935047	 0;
	 2	 0	 0	 3	 0	 0	 0;
	 2	 0	 0	 3	 0	 32.738635	 0;
	 2	 0	 0	 3	 0	 24.642891	 0;
	 2	 0	 0	 3	 0	 17.386501	 0;
	 2	 0	 0	 3	 0	 36.008261	 0;
	 2	 0	 0	 3	 0	 33.638878	 0;
];


% ---------- Interregional Tie-Line Information ----------
% Each row: {From_Region (string), To_Region (string), Branch_Data (1x13 array)}
% Branch_Data: {fbus, tbus, r, x, b, rateA, rateB, rateC, ratio, angle, status, angmin, angmax}

interregional_tielines_total = {
	{'mpc_regionR3', 'mpc_regionR2', [ 2	 1	 0.0005	 0.0053	 0.0882	 5934	 5934	 5934	 0	 0	 1	-30	 30]},
	{'mpc_regionR3', 'mpc_regionR2', [ 2	 73	 0.0048	 0.0436	 0.7078	 721	 721	 721	 0	 0	 1	-30	 30]},
	{'mpc_regionR3', 'mpc_regionR2', [ 13	 74	 0.00811	 0.1369	 1.1156	 231	 231	 231	 0	 0	 1	-30	 30]},
	{'mpc_regionR1', 'mpc_regionR3', [ 43	 75	 0.00123	 0.02659	 1.98702	 1187	 1187	 1187	 0	 0	 1	-30	 30]},
	{'mpc_regionR1', 'mpc_regionR3', [ 44	 76	 0.00123	 0.02662	 1.9888	 1186	 1186	 1186	 0	 0	 1	-30	 30]},
	{'mpc_regionR1', 'mpc_regionR3', [ 45	 77	 0.00112	 0.02517	 1.83586	 1254	 1254	 1254	 0	 0	 1	-30	 30]},
	{'mpc_regionR1', 'mpc_regionR2', [ 51	 5	 0.00053	 0.00456	 0	 6881	 6881	 6881	 0	 0	 1	-30	 30]},
	{'mpc_regionR1', 'mpc_regionR2', [ 51	 5	 0.00053	 0.00456	 0	 6881	 6881	 6881	 0	 0	 1	-30	 30]},
	{'mpc_regionR2', 'mpc_regionR1', [ 5	 75	 0.00106	 0.01293	 0	 2435	 2435	 2435	 0	 0	 1	-30	 30]},
	{'mpc_regionR1', 'mpc_regionR2', [ 31	 64	 0.00089	 0.0299	 0	 1056	 1056	 1056	 0	 0	 1	-30	 30]},
	{'mpc_regionR1', 'mpc_regionR2', [ 31	 64	 0.00089	 0.0299	 0	 1056	 1056	 1056	 0	 0	 1	-30	 30]},
};

